%chk=carbene_R.chk
%nprocshared=24
#p irc=(calcfc,lqa,stepsize=15,maxpoint=40) b3lyp/6-31g(d)
scrf=(smd,solvent=benzene) em=gd3bj

Title Card Required

0 1
 C                  0.00001700   -0.90058700    0.23485900
 C                  0.67863200    1.26342900   -0.15939500
 C                 -0.67862100    1.26339800   -0.15947500
 H                  1.38849900    2.06550200   -0.29569700
 H                 -1.38850200    2.06545500   -0.29581700
 N                 -1.06109600   -0.05121400    0.08132700
 N                  1.06112700   -0.05115000    0.08150800
 C                 -2.44317800   -0.50598800    0.09670600
 H                 -2.67806000   -1.05444100   -0.81943400
 H                 -2.60575300   -1.16460000    0.95227500
 H                 -3.10939700    0.35532300    0.17461600
 C                  2.44315300   -0.50606700    0.09672700
 H                  2.67726300   -1.05474700   -0.81843800
 H                  3.10883900    0.35434600    0.17326100
 H                  2.60656100   -1.16405500    0.95178400
 H                  0.00005200   -3.38601000   -2.08066200
 H                  0.00004800   -2.90747900   -1.50723300

