%chk=carbene_P.chk
%nprocshared=24
#p irc=(calcfc,lqa,stepsize=15,maxpoint=40) b3lyp/6-31g(d)
scrf=(smd,solvent=benzene) em=gd3bj

Title Card Required

0 1
 C                  0.00005600   -0.93805900    0.17106600
 C                  0.67108900    1.20350100   -0.20015700
 C                 -0.67114000    1.20336100   -0.20040800
 H                  1.35818600    2.01736400   -0.38596800
 H                 -1.35828900    2.01711500   -0.38647700
 N                 -1.14283400   -0.03606200    0.30539800
 N                  1.14293400   -0.03585900    0.30593300
 C                 -2.41588700   -0.55549100   -0.14818900
 H                 -2.38730900   -0.92661500   -1.18921100
 H                 -2.73194400   -1.37925200    0.49982400
 H                 -3.17224400    0.23183500   -0.08341600
 C                  2.41576600   -0.55522300   -0.14832600
 H                  2.38723500   -0.91946300   -1.19268700
 H                  3.17409000    0.22896000   -0.07827900
 H                  2.72996000   -1.38706200    0.49425500
 H                  0.00013700   -1.42288300   -0.84192100
 H                  0.00017800   -1.72439000    0.93300600

