%chk=irc3.chk
%nprocshared=24
#p irc=(calcfc,maxpoint=30,stepsize=15) b3lyp/6-311+g(d)

Title Card Required

0 1
 C                 -1.23139900    0.20073100    0.23178200
 H                 -1.89259800    0.41519500    1.07594400
 O                 -1.09721000   -1.04336400   -0.07763400
 C                 -0.42065200    1.18302400   -0.33189900
 H                 -0.13307800    1.06848600   -1.37039300
 H                 -0.54777700    2.20604600    0.00727900
 C                  1.29110000    0.39193300    0.29304400
 H                  1.89269400    1.14152000   -0.23570000
 H                  1.23765900    0.56770600    1.37786800
 O                  1.30065900   -0.81445900   -0.14249800
 H                 -0.01879000   -1.19049200   -0.25150700

