%chk=irc32p.chk
%nprocshared=24
#p opt freq b3lyp/6-311+g(d)

Title Card Required

0 1
 C                 -1.34830800    0.22752300    0.13966200
 H                 -2.27106800    0.74150900    0.49352800
 O                 -1.33326600   -0.98248200    0.06668700
 C                 -0.16899700    1.09778400   -0.23015900
 H                 -0.12360900    1.14629800   -1.32718500
 H                 -0.33428600    2.11798300    0.13194200
 C                  1.16767100    0.54673800    0.29963400
 H                  1.96943300    1.24053600    0.04040300
 H                  1.12654700    0.48813700    1.39643500
 O                  1.52308800   -0.70069000   -0.26069900
 H                  0.78340800   -1.31141300   -0.14614700

