%chk=irc32r.chk
%nprocshared=24
#p opt freq b3lyp/6-311+g(d)

Title Card Required

0 1
 C                 -1.40038400    0.34680100    0.20171100
 H                 -2.10379500    0.51379300    1.01189700
 O                 -1.23012400   -0.97619500   -0.01177800
 C                 -0.82905700    1.36289700   -0.45524700
 H                 -0.17531600    1.21594400   -1.31200000
 H                 -1.08305800    2.38175700   -0.18615100
 C                  1.74426700    0.24752100    0.45499100
 H                  2.13885400    1.16757300   -0.00661000
 H                  1.52853600    0.30017400    1.53681400
 O                  1.60292000   -0.77129800   -0.17020100
 H                 -0.44489400   -1.14952400   -0.55448400

