%chk=P.chk
%nproc=24
#p b3lyp/6-311+g* opt 

Title Card Required

0 1
 C                 -0.62607201    2.66723838    0.00000000
 H                 -1.69535698    2.66764932    0.03910870
 O                  0.00013037    3.75780709   -0.04583689
 C                  0.14128516    1.33203691    0.00000000
 H                  0.75633069    1.27413810    0.87365137
 H                 -0.55564244    0.52013055   -0.00000013
 C                  1.02649099    1.24870513   -1.25740465
 H                  1.67239346    0.39887965   -1.18319789
 H                  0.40666792    1.15100603   -2.12410775
 O                  1.81361364    2.43764356   -1.36586362
 H                  1.23839379    3.20590900   -1.34371999


