%chk=R.chk
%nproc=24
#p b3lyp/6-311+g* opt

Title Card Required

0 1
 C                 -4.05561258    1.27681242    0.02213922
 H                 -3.54765937    0.35119834    0.19569643
 H                 -5.11434887    1.28526826   -0.13247635
 C                 -3.35802284    2.43843202   -0.00184999
 H                 -3.86597649    3.36404642   -0.17540424
 O                 -1.94307582    2.42713093    0.20478306
 H                 -1.64097698    1.52100960    0.30111805
 C                 -3.02393099   -0.27371874    1.18758760
 H                 -3.71497361    0.53907962    1.10561854
 H                 -3.38368524   -1.28103245    1.21580039
 O                 -1.78811532   -0.04495414    1.25080898


