%chk=ts.chk
%nproc=24
#p b3lyp/6-311+g* opt=(ts,noeigen,calcfc)

Title Card Required

0 1
 C                 -0.75707098    2.67957040    0.18607956
 H                 -1.82635595    2.67998134    0.22518826
 O                 -0.11695623    3.76791819    0.12122595
 C                  0.01028619    1.34436893    0.18607956
 H                  0.62533172    1.28647012    1.05973093
 H                 -0.68664141    0.53246257    0.18607943
 C                  1.15748996    1.23637311   -1.44348421
 H                  1.80339243    0.38654763   -1.36927745
 H                  0.53766689    1.13867401   -2.31018731
 O                  1.90705989    2.42084764   -1.54138002
 H                  0.76257104    3.62751375   -1.08099400


