%chk=ts2.chk
%nprocshared=24
#p opt=(calcfc,ts,noeigen) b3lyp/6-311+g(d)

Title Card Required

0 1
 C                 -1.22778600    0.20178700    0.23146200
 H                 -1.88392100    0.41756800    1.07943200
 O                 -1.09813100   -1.04294500   -0.07837800
 C                 -0.41912500    1.18470700   -0.33280400
 H                 -0.12646900    1.07060300   -1.36974700
 H                 -0.54522800    2.20679800    0.00935400
 C                  1.28977900    0.39019100    0.29381000
 H                  1.88978300    1.14077200   -0.23476100
 H                  1.23054100    0.56574300    1.37814600
 O                  1.29763200   -0.81535700   -0.14307200
 H                  0.13516953   -1.60535607   -0.47993183

