%chk=Pt_P_sp.chk
%nprocshared=24
#p opt freq scrf=(smd,solvent=benzene) def2tzvp em=gd3bj pbe1pbe

Title Card Required

0 1
 Pt                 0.00418300   -0.88297900   -0.00996900
 P                  1.79414200    0.54470700   -0.00589800
 P                 -1.78213800    0.55176900   -0.00593600
 C                  1.90846400    1.65524900    1.43299200
 H                  1.92652700    1.05427800    2.34453200
 H                  2.80907700    2.27397900    1.39343300
 H                  1.03140300    2.30391500    1.47404600
 C                  3.42620600   -0.25426900    0.00780600
 H                  3.52016900   -0.88159300   -0.88074100
 H                  4.23888200    0.47696600    0.02716000
 H                  3.49621300   -0.90322000    0.88268700
 C                  1.95644900    1.69294500   -1.40980200
 H                  1.10629000    2.37566000   -1.43345100
 H                  2.87979100    2.27471300   -1.34354100
 H                  1.96014200    1.12102200   -2.34000800
 C                 -2.58141900    0.67546500    1.62321800
 H                 -1.87607600    1.09524000    2.34355100
 H                 -3.47616300    1.30284000    1.58706300
 H                 -2.85235400   -0.32609000    1.96194800
 C                 -3.15007500    0.03739900   -1.08699500
 H                 -3.99033000    0.73507200   -1.03496400
 H                 -2.79272100   -0.02059700   -2.11723500
 H                 -3.48072600   -0.95914200   -0.79038900
 C                 -1.60379600    2.30559800   -0.47295500
 H                 -1.24353600    2.37301900   -1.50143400
 H                 -2.55882300    2.83297100   -0.39995100
 H                 -0.88226200    2.79825000    0.18183800
 H                 -1.10287600   -2.06166700    0.01521700
 H                  1.04611000   -2.11470900    0.01974300

