%chk=E:\2019fall\TCCNotes\ICC\0929\1.chk
# hf/3-21g geom=connectivity

Title Card Required

0 1
 C                 -5.68690277   -4.03213928   -0.32324680
 O                 -6.25133877   -3.52082189   -1.32501378
 O                 -4.38652952   -3.58578287    0.07006653
 H                 -3.91285007   -4.30873264    0.48788398
 C                 -6.39656136   -5.13856885    0.47912361
 H                 -6.98054969   -4.69527504    1.25844910
 H                 -7.03602628   -5.69708454   -0.17206365
 C                 -5.34536201   -6.07916507    1.09707076
 O                 -4.20949830   -5.63563792    1.40798532
 C                 -5.68420567   -7.56253927    1.33452807
 H                 -6.10321118   -7.68064120    2.31196672
 H                 -6.39200870   -7.88851723    0.60127966
 H                 -4.79282745   -8.14911547    1.25532441

 1 2 2.0 3 1.0 5 1.0
 2
 3 4 1.0
 4
 5 6 1.0 7 1.0 8 1.0
 6
 7
 8 9 2.0 10 1.0
 9
 10 11 1.0 12 1.0 13 1.0
 11
 12
 13

