%chk=E:\2019fall\TCCNotes\ICC\0929\2.chk
# hf/3-21g geom=connectivity

Title Card Required

0 1
 C                  1.67336787    0.49995811    0.29515074
 O                  2.90713084    0.40522829    0.52411742
 O                  1.02855682    1.77429023    0.36723660
 C                  0.85792997   -0.75647144   -0.06268415
 H                  0.47577665   -1.20060489    0.83263943
 H                  0.04375005   -0.48342695   -0.70100834
 H                  1.48769271   -1.45835626   -0.56830909
 C                  1.96063984    2.80063579    0.01689956
 H                  2.78643009    2.77977763    0.69699911
 H                  2.31476332    2.63593756   -0.97927866
 C                  1.26622794    4.17299345    0.09453048
 O                  1.93255719    5.19967588    0.38693271
 C                 -0.24362186    4.28892156   -0.18567349
 H                 -0.53629761    3.53132380   -0.88229860
 H                 -0.78660217    4.16262852    0.72762955
 H                 -0.45701727    5.25335981   -0.59703860

 1 2 2.0 3 1.0 4 1.0
 2
 3 8 1.0
 4 5 1.0 6 1.0 7 1.0
 5
 6
 7
 8 9 1.0 10 1.0 11 1.0
 9
 10
 11 12 2.0 13 1.0
 12
 13 14 1.0 15 1.0 16 1.0
 14
 15
 16

