%chk=E:\2019fall\TCCNotes\ICC\0929\d5d.chk
# hf/3-21g geom=connectivity

Title Card Required

0 2
 C                  0.00000000    1.19185586    0.87019181
 H                  0.00000000    2.26163491    0.89192454
 C                 -1.13352228    0.36830371    0.87019181
 H                 -2.15094262    0.69888362    0.89192454
 C                 -0.70055529   -0.96423164    0.87019181
 H                 -1.32935564   -1.82970107    0.89192454
 C                  0.70055529   -0.96423164    0.87019181
 H                  1.32935564   -1.82970107    0.89192454
 C                  1.13352228    0.36830371    0.87019181
 H                  2.15094262    0.69888362    0.89192454
 C                 -0.70055529    0.96423164   -0.87019181
 H                 -1.32935564    1.82970107   -0.89192454
 C                 -1.13352228   -0.36830371   -0.87019181
 H                 -2.15094262   -0.69888362   -0.89192454
 C                 -0.00000000   -1.19185586   -0.87019181
 H                 -0.00000000   -2.26163491   -0.89192454
 C                  1.13352228   -0.36830371   -0.87019181
 H                  2.15094262   -0.69888362   -0.89192454
 C                  0.70055529    0.96423164   -0.87019181
 H                  1.32935564    1.82970107   -0.89192454
 Fe                 0.00000000   -0.00000000    0.00000000
 H                 -0.37023396   -0.07389638   -0.91975116

 1 2 1.0 3 1.5 9 1.5
 2
 3 4 1.0 5 1.5
 4
 5 6 1.0 7 1.5
 6
 7 8 1.0 9 1.5
 8
 9 10 1.0
 10
 11 12 1.0 13 1.5 19 1.5
 12
 13 14 1.0 15 1.5
 14
 15 16 1.0 17 1.5
 16
 17 18 1.0 19 1.5
 18
 19 20 1.0
 20
 21
 22

