%chk=Pt_irc0037.chk
%nprocshared=24
%mem=10gb
#p pbe1pbe/def2tzvp em=gd3bj scrf=(smd,solvent=benzene) out=wfn

irc

0 1
Pt    0.00006100 -0.37851300  0.00767800
P     2.13920100  0.35901000 -0.01390800
P    -2.13937300  0.35864500 -0.00087100
C     2.68554800  1.32085200  1.43493200
H     2.53114100  0.72792900  2.33877900
H     3.74240400  1.59440900  1.36121700
H     2.07984000  2.22503300  1.51755500
C     3.44875800 -0.91775300 -0.08660900
H     3.30899600 -1.52006700 -0.98715300
H     4.45434600 -0.48605500 -0.09550300
H     3.34909200 -1.57883300  0.77726000
C     2.63837800  1.43035900 -1.40182600
H     2.03160300  2.33759100 -1.39328000
H     3.69784400  1.69797200 -1.34478600
H     2.45092200  0.90874100 -2.34272100
C    -2.63879500  1.48293100  1.34445800
H    -2.03175200  2.38899800  1.30137300
H    -3.69813300  1.74848500  1.27652400
H    -2.45212500  0.99781800  2.30483400
C    -3.44885300 -0.91436400  0.12096400
H    -4.45447300 -0.48274000  0.11230200
H    -3.34859000 -1.60873700 -0.71630900
H    -3.30959600 -1.48094500  1.04448800
C    -2.68546200  1.26341500 -1.48610700
H    -2.53176600  0.63527000 -2.36597200
H    -3.74207900  1.54050800 -1.42292000
H    -2.07901200  2.16311800 -1.60436200
H    -0.43108000 -2.14273300  0.04904700
H     0.43097300 -2.14170900  0.04192300

Pt_irc0037.wfn

