%chk=Pt_irc0008.chk
%nprocshared=24
%mem=10gb
#p pbe1pbe/def2tzvp em=gd3bj scrf=(smd,solvent=benzene) out=wfn

irc

0 1
Pt    0.00000400 -0.49372000  0.01152800
P     2.06840400  0.47196000 -0.01930900
P    -2.06837300  0.47230800 -0.00491500
C     2.54724200  1.45894600  1.43628600
H     2.43599400  0.85055200  2.33604600
H     3.57990400  1.81289600  1.36596500
H     1.87643900  2.31625900  1.52641400
C     3.45767400 -0.71176800 -0.10432200
H     3.35362400 -1.31696600 -1.00695500
H     4.42693600 -0.20359500 -0.11752500
H     3.40824000 -1.37940800  0.75776700
C     2.48790600  1.58600100 -1.39996700
H     1.81753300  2.44832100 -1.38204900
H     3.52435500  1.93195100 -1.34682900
H     2.33219600  1.06145900 -2.34495700
C    -2.48821600  1.63656000  1.33355000
H    -1.81821200  2.49791700  1.28428100
H    -3.52476600  1.97976600  1.26660200
H    -2.33328400  1.14715800  2.29730000
C    -3.45732800 -0.70793300  0.12414500
H    -4.42698900 -0.20047600  0.11292400
H    -3.40456600 -1.41052300 -0.70952600
H    -3.35575100 -1.27529000  1.05127700
C    -2.54750500  1.40414100 -1.49621500
H    -2.43730700  0.76198700 -2.37236700
H    -3.57973800  1.76172900 -1.43912000
H    -1.87560800  2.25652900 -1.61914100
H    -0.55078700 -2.05298100  0.06539800
H     0.55279000 -2.05380300  0.05717500

Pt_irc0008.wfn

