%chk=Pt_irc0067.chk
%nprocshared=24
%mem=10gb
#p pbe1pbe/def2tzvp em=gd3bj scrf=(smd,solvent=benzene) out=wfn

irc

0 1
Pt   -0.00215700 -0.28779600  0.00573400
P     2.17759100  0.23549000 -0.00945000
P    -2.17501300  0.23414300  0.00048200
C     2.67924500  1.23458000  1.43159000
H     2.56722800  0.64204200  2.34168500
H     3.71699800  1.56975200  1.34423700
H     2.02277400  2.10278500  1.51113700
C     3.51450500 -1.00367300 -0.08309800
H     3.39697500 -1.60596900 -0.98665900
H     4.50493000 -0.53912300 -0.08694400
H     3.43440400 -1.67144900  0.77755200
C     2.62143800  1.33679000 -1.39423400
H     1.96533700  2.20881300 -1.38255800
H     3.66317300  1.66404500 -1.32647300
H     2.46902800  0.81191800 -2.33930600
C    -2.61889500  1.38964900  1.34044800
H    -1.96121600  2.25943500  1.29596400
H    -3.65996100  1.71548900  1.25729900
H    -2.46968600  0.90198400  2.30573800
C    -3.51669400 -0.99683900  0.12201400
H    -4.50530700 -0.52845500  0.10748700
H    -3.43986700 -1.69799300 -0.71194600
H    -3.40229200 -1.56370000  1.04859700
C    -2.67514800  1.17672400 -1.47875700
H    -2.56458500  0.54888400 -2.36503700
H    -3.71236000  1.51654600 -1.40385700
H    -2.01742600  2.04018800 -1.59241000
H    -0.11092200 -2.97150600  0.05429700
H     0.38789000 -3.51706300  0.05611800

Pt_irc0067.wfn

