%chk=Pt_irc0045.chk
%nprocshared=24
%mem=10gb
#p pbe1pbe/def2tzvp em=gd3bj scrf=(smd,solvent=benzene) out=wfn

irc

0 1
Pt   -0.00002300 -0.34403500  0.00707100
P     2.15470700  0.31491700 -0.01236000
P    -2.15462600  0.31410600 -0.00099100
C     2.69401800  1.27983600  1.43617100
H     2.54593200  0.68483000  2.33971400
H     3.74787400  1.56511500  1.36252400
H     2.07784200  2.17674900  1.51900800
C     3.46615800 -0.96031700 -0.08377700
H     3.33217500 -1.56206000 -0.98565600
H     4.46943100 -0.52353000 -0.09015500
H     3.36917500 -1.62262800  0.77957800
C     2.64500000  1.38629000 -1.40227700
H     2.02819000  2.28656000 -1.39437400
H     3.70178700  1.66509100 -1.34718800
H     2.46128700  0.86095200 -2.34181700
C    -2.64521000  1.43873800  1.34620000
H    -2.02798700  2.33775300  1.30405100
H    -3.70183000  1.71562800  1.27956500
H    -2.46253500  0.94987400  2.30542000
C    -3.46605400 -0.95748900  0.12025500
H    -4.46943200 -0.52105300  0.10905400
H    -3.36870900 -1.65342000 -0.71619600
H    -3.33223700 -1.52310200  1.04525300
C    -2.69436700  1.22152100 -1.48616500
H    -2.54708000  0.59119500 -2.36557400
H    -3.74807300  1.50988400 -1.42318200
H    -2.07785100  2.11418400 -1.60467500
H    -0.40560800 -2.18764900  0.05173900
H     0.41501400 -2.22775400  0.04388800

Pt_irc0045.wfn

