%chk=Pt_irc0028.chk
%nprocshared=24
%mem=10gb
#p pbe1pbe/def2tzvp em=gd3bj scrf=(smd,solvent=benzene) out=wfn

irc

0 1
Pt    0.00002300 -0.41473700  0.00862100
P     2.11812000  0.39378600 -0.01550900
P    -2.11822100  0.39382400 -0.00163300
C     2.64497900  1.36553500  1.43426900
H     2.50338900  0.76876200  2.33769900
H     3.69591200  1.66084200  1.36039200
H     2.02102800  2.25722500  1.51810200
C     3.45582500 -0.85284200 -0.09176700
H     3.32729600 -1.45729100 -0.99248700
H     4.45177900 -0.39920000 -0.10176400
H     3.37125300 -1.51702300  0.77124800
C     2.59446600  1.47985200 -1.40053400
H     1.96894300  2.37436800 -1.38955400
H     3.64800800  1.76956100 -1.34259200
H     2.41834400  0.95723200 -2.34309600
C    -2.59386400  1.53227000  1.34088900
H    -1.96810200  2.42555300  1.29577700
H    -3.64731700  1.81986400  1.27193000
H    -2.41797300  1.04586300  2.30267300
C    -3.45613800 -0.84868600  0.12281300
H    -4.45203700 -0.39489700  0.11421900
H    -3.37111300 -1.54642300 -0.71325700
H    -3.32825400 -1.41708700  1.04679500
C    -2.64537000  1.30889800 -1.48765900
H    -2.50582400  0.67677700 -2.36706300
H    -3.69573100  1.60864100 -1.42428500
H    -2.01996900  2.19545300 -1.60722800
H    -0.44750000 -2.12594800  0.05850700
H     0.44779000 -2.12591300  0.03940200

Pt_irc0028.wfn

