%chk=Pt_irc0064.chk
%nprocshared=24
%mem=10gb
#p pbe1pbe/def2tzvp em=gd3bj scrf=(smd,solvent=benzene) out=wfn

irc

0 1
Pt   -0.00147600 -0.29316800  0.00583800
P     2.17453000  0.24186500 -0.00961800
P    -2.17169000  0.24007000  0.00045100
C     2.67906100  1.23961800  1.43145500
H     2.56343900  0.64832200  2.34185800
H     3.71841400  1.57022100  1.34499600
H     2.02658200  2.11098400  1.51001900
C     3.51114000 -0.99833800 -0.08307800
H     3.39221500 -1.60049600 -0.98655500
H     4.50239200 -0.53547000 -0.08735400
H     3.42993100 -1.66528300  0.77811800
C     2.62188600  1.34189200 -1.39441300
H     1.96968800  2.21688700 -1.38219800
H     3.66509900  1.66478300 -1.32733700
H     2.46661700  0.81825200 -2.33967600
C    -2.62038300  1.39401000  1.34040800
H    -1.96763000  2.26747800  1.29516100
H    -3.66330400  1.71423600  1.25792100
H    -2.46794100  0.90783800  2.30591500
C    -3.51142000 -0.99385800  0.12185600
H    -4.50174900 -0.52912800  0.10740300
H    -3.43201700 -1.69445100 -0.71238900
H    -3.39491000 -1.56027600  1.04848900
C    -2.67584600  1.18073400 -1.47886200
H    -2.56152600  0.55400500 -2.36541000
H    -3.71495600  1.51493300 -1.40432000
H    -2.02295600  2.04795100 -1.59200900
H    -0.24722100 -2.89573300  0.05407000
H     0.38522000 -3.32677300  0.05148500

Pt_irc0064.wfn

