%chk=Pt_irc0039.chk
%nprocshared=24
%mem=10gb
#p pbe1pbe/def2tzvp em=gd3bj scrf=(smd,solvent=benzene) out=wfn

irc

0 1
Pt    0.00005900 -0.36974400  0.00750200
P     2.14364000  0.34944500 -0.01348300
P    -2.14380400  0.34895700 -0.00083600
C     2.69164800  1.30992600  1.43542800
H     2.53605900  0.71690600  2.33902700
H     3.74898400  1.58184500  1.36206400
H     2.08717200  2.21489900  1.51814100
C     3.44975200 -0.93104000 -0.08565500
H     3.30928800 -1.53300100 -0.98635500
H     4.45628300 -0.50160300 -0.09407700
H     3.34851000 -1.59193400  0.77821000
C     2.64449900  1.41852300 -1.40227800
H     2.03901700  2.32658900 -1.39425600
H     3.70446100  1.68445200 -1.34599500
H     2.45568700  0.89624700 -2.34254500
C    -2.64500900  1.47114200  1.34530300
H    -2.03922500  2.37803000  1.30264000
H    -3.70483300  1.73506800  1.27812300
H    -2.45702800  0.98544400  2.30513600
C    -3.44980800 -0.92782300  0.12067300
H    -4.45637400 -0.49848900  0.11164900
H    -3.34798600 -1.62201500 -0.71659900
H    -3.30982700 -1.49403700  1.04434000
C    -2.69152700  1.25219400 -1.48622200
H    -2.53660700  0.62388800 -2.36577400
H    -3.74864100  1.52757700 -1.42335500
H    -2.08636800  2.15271800 -1.60466300
H    -0.42656400 -2.14979100  0.04821900
H     0.42685600 -2.15003400  0.04099700

Pt_irc0039.wfn

