%chk=Pt_irc0090.chk
%nprocshared=24
%mem=10gb
#p pbe1pbe/def2tzvp em=gd3bj scrf=(smd,solvent=benzene) out=wfn

irc

0 1
Pt   -0.00446400 -0.22421300  0.00474800
P     2.20171900  0.17770900 -0.00763100
P    -2.20895100  0.18315000  0.00089300
C     2.76043200  1.14039100  1.43591700
H     2.60965800  0.55268000  2.34351400
H     3.81650800  1.41381100  1.35340300
H     2.15667400  2.04610600  1.51660100
C     3.45062300 -1.14857200 -0.08073700
H     3.29186800 -1.74569300 -0.98113100
H     4.46708000 -0.74471700 -0.09090400
H     3.33349500 -1.80480900  0.78416500
C     2.70727500  1.24582400 -1.39583800
H     2.10218200  2.15415900 -1.38642500
H     3.76617600  1.51361100 -1.33305000
H     2.52150300  0.72661300 -2.33805700
C    -2.70003200  1.31322900  1.34486000
H    -2.08105800  2.21109100  1.30054900
H    -3.75470200  1.59426200  1.26904400
H    -2.52393300  0.82926100  2.30747900
C    -3.48178500 -1.11702400  0.12535500
H    -4.49082300 -0.69496500  0.11120800
H    -3.37145900 -1.81347400 -0.70849700
H    -3.33865900 -1.67579800  1.05260600
C    -2.75324300  1.09672600 -1.47991100
H    -2.61305300  0.47128700 -2.36369200
H    -3.80476700  1.39005000 -1.40765300
H    -2.13501000  1.98862000 -1.59654200
H     0.56057600 -2.76622000  0.02453900
H     0.77286800 -3.49318700  0.03100200

Pt_irc0090.wfn

