%chk=Pt_irc0013.chk
%nprocshared=24
%mem=10gb
#p pbe1pbe/def2tzvp em=gd3bj scrf=(smd,solvent=benzene) out=wfn

irc

0 1
Pt    0.00004800 -0.47397500  0.01065800
P     2.07992200  0.45118400 -0.01806800
P    -2.08005900  0.45150600 -0.00369100
C     2.57026700  1.43647600  1.43530300
H     2.45345000  0.83028800  2.33601900
H     3.60834100  1.77410000  1.36231900
H     1.91175900  2.30267300  1.52450800
C     3.46232700 -0.74341300 -0.10105500
H     3.35387400 -1.34984300 -1.00283500
H     4.43933800 -0.25034900 -0.11239300
H     3.40455400 -1.41230800  0.76021800
C     2.51189200  1.55966300 -1.39973800
H     1.85260400  2.42978400 -1.38490200
H     3.55330800  1.89031600 -1.34389600
H     2.35365900  1.03369800 -2.34364500
C    -2.51223800  1.61124500  1.33514300
H    -1.85342900  2.48053600  1.28768900
H    -3.55380100  1.93898000  1.26644000
H    -2.35418600  1.12121000  2.29820200
C    -3.46225700 -0.73930300  0.12429200
H    -4.43950700 -0.24671000  0.11343400
H    -3.40223900 -1.44250200 -0.70904400
H    -3.35540400 -1.30860300  1.05014300
C    -2.57018500  1.38081400 -1.49345700
H    -2.45527700  0.73984000 -2.37003900
H    -3.60758700  1.72288700 -1.43280700
H    -1.91002800  2.24155000 -1.61683600
H    -0.49647900 -2.09953700  0.05880400
H     0.49420800 -2.09362800  0.05049600

Pt_irc0013.wfn

