%chk=Pt_irc0016.chk
%nprocshared=24
%mem=10gb
#p pbe1pbe/def2tzvp em=gd3bj scrf=(smd,solvent=benzene) out=wfn

irc

0 1
Pt   -0.00002900 -0.46201100  0.01018000
P     2.08767200  0.43896700 -0.01748500
P    -2.08761200  0.43937000 -0.00311800
C     2.58482700  1.42239800  1.43495600
H     2.46351700  0.81807200  2.33634300
H     3.62560000  1.75164700  1.36146800
H     1.93301000  2.29366300  1.52303600
C     3.46296000 -0.76446500 -0.09922400
H     3.35098800 -1.37076400 -1.00076000
H     4.44376900 -0.27899100 -0.11013500
H     3.40018900 -1.43285700  0.76222200
C     2.52764500  1.54375400 -1.39973500
H     1.87453100  2.41844100 -1.38574100
H     3.57150000  1.86665700 -1.34318800
H     2.36652300  1.01821300 -2.34339500
C    -2.52768800  1.59568600  1.33621700
H    -1.87503800  2.46952600  1.28904000
H    -3.57168800  1.91568200  1.26733200
H    -2.36648800  1.10630600  2.29909700
C    -3.46287900 -0.76024900  0.12435900
H    -4.44382600 -0.27503300  0.11397700
H    -3.39847700 -1.46277800 -0.70935500
H    -3.35229900 -1.32968100  1.04979600
C    -2.58481100  1.36641400 -1.49206900
H    -2.46576500  0.72697000 -2.36922800
H    -3.62483800  1.70038000 -1.43041700
H    -1.93120000  2.23209700 -1.61493600
H    -0.47828800 -2.10743400  0.05681600
H     0.48138000 -2.11004400  0.04893200

Pt_irc0016.wfn

