%chk=Pt_irc0060.chk
%nprocshared=24
%mem=10gb
#p pbe1pbe/def2tzvp em=gd3bj scrf=(smd,solvent=benzene) out=wfn

irc

0 1
Pt   -0.00074300 -0.29922100  0.00596500
P     2.17094100  0.24878000 -0.00980600
P    -2.16891000  0.24704400  0.00040900
C     2.67922100  1.24433000  1.43138400
H     2.55932000  0.65413900  2.34194300
H     3.72048700  1.56935800  1.34617400
H     2.03116400  2.11909900  1.50878000
C     3.50659800 -0.99381700 -0.08300900
H     3.38708800 -1.59562800 -0.98667700
H     4.49894500 -0.53312300 -0.08722900
H     3.42452100 -1.66034700  0.77846600
C     2.62278000  1.34672200 -1.39467000
H     1.97487100  2.22488600 -1.38154800
H     3.66776700  1.66428900 -1.32883700
H     2.46378700  0.82421400 -2.33994300
C    -2.62247800  1.39875100  1.34048700
H    -1.97437600  2.27561600  1.29411400
H    -3.66731500  1.71337700  1.25984900
H    -2.46581500  0.91369900  2.30589000
C    -3.50636300 -0.99051600  0.12174100
H    -4.49829300 -0.52909900  0.10681300
H    -3.42463800 -1.69092800 -0.71247200
H    -3.38866000 -1.55612500  1.04875300
C    -2.67708500  1.18498200 -1.47916800
H    -2.55806700  0.55903800 -2.36565400
H    -3.71823000  1.51330100 -1.40609500
H    -2.02886500  2.05580600 -1.59149600
H    -0.33950400 -2.81294500  0.05233100
H     0.38531200 -3.05041400  0.04458800

Pt_irc0060.wfn

