%chk=Pt_irc0033.chk
%nprocshared=24
%mem=10gb
#p pbe1pbe/def2tzvp em=gd3bj scrf=(smd,solvent=benzene) out=wfn

irc

0 1
Pt    0.00010400 -0.39507600  0.00807600
P     2.13002000  0.37536200 -0.01470000
P    -2.13035700  0.37524600 -0.00111900
C     2.66889200  1.34135600  1.43437800
H     2.51949300  0.74722400  2.33827300
H     3.72342200  1.62353100  1.36044500
H     2.05592900  2.24068000  1.51718900
C     3.45096100 -0.88943400 -0.08879100
H     3.31565900 -1.49267600 -0.98934400
H     4.45272700 -0.44879500 -0.09829800
H     3.35748700 -1.55166300  0.77482900
C     2.62077000  1.45291900 -1.40110600
H     2.00653400  2.35517800 -1.39136700
H     3.67789600  1.72930500 -1.34331600
H     2.43794800  0.93132500 -2.34293700
C    -2.62077100  1.50540400  1.34283300
H    -2.00615300  2.40638200  1.29880900
H    -3.67774400  1.77985000  1.27417900
H    -2.43852600  1.02006600  2.30395800
C    -3.45118500 -0.88570300  0.12170200
H    -4.45296500 -0.44506700  0.11327900
H    -3.35715100 -1.58127300 -0.71523600
H    -3.31637300 -1.45311600  1.04532400
C    -2.66910800  1.28441800 -1.48646000
H    -2.52091200  0.65502700 -2.36638900
H    -3.72325700  1.57055500 -1.42310500
H    -2.05506200  2.17897600 -1.60488600
H    -0.44071600 -2.13432700  0.05177000
H     0.43726200 -2.12460700  0.04280800

Pt_irc0033.wfn

