%chk=Pt_irc0057.chk
%nprocshared=24
%mem=10gb
#p pbe1pbe/def2tzvp em=gd3bj scrf=(smd,solvent=benzene) out=wfn

irc

0 1
Pt   -0.00013100 -0.30674100  0.00613700
P     2.16673800  0.25808400 -0.01006400
P    -2.16625600  0.25699800  0.00028700
C     2.67962200  1.25063400  1.43155600
H     2.55662300  0.66043700  2.34171800
H     3.72264400  1.57016900  1.34675900
H     2.03594600  2.12856500  1.50942500
C     3.50110200 -0.98727500 -0.08298400
H     3.38050700 -1.58901000 -0.98662200
H     4.49492900 -0.52959000 -0.08717800
H     3.41736200 -1.65350300  0.77863400
C     2.62407900  1.35328400 -1.39524000
H     1.98044000  2.23457000 -1.38275800
H     3.67074500  1.66542500 -1.32968100
H     2.46254400  0.83091800 -2.34018400
C    -2.62496300  1.40590600  1.34079700
H    -1.98095800  2.28578800  1.29477400
H    -3.67143400  1.71545200  1.26134700
H    -2.46522300  0.92083900  2.30571500
C    -3.50105300 -0.98439100  0.12153000
H    -4.49483200 -0.52682700  0.10672000
H    -3.41673800 -1.68439900 -0.71282800
H    -3.38139500 -1.54977000  1.04848100
C    -2.67860100  1.19149800 -1.47987100
H    -2.55596200  0.56522900 -2.36565900
H    -3.72148300  1.51456700 -1.40782700
H    -2.03455300  2.06531600 -1.59282500
H    -0.37311100 -2.75856300  0.04980900
H     0.38233700 -2.81125100  0.03994700

Pt_irc0057.wfn

