%chk=Pt_irc0002.chk
%nprocshared=24
%mem=10gb
#p pbe1pbe/def2tzvp em=gd3bj scrf=(smd,solvent=benzene) out=wfn

irc

0 1
Pt    0.00001200 -0.50682000  0.01208700
P     2.06439100  0.48506000 -0.02021400
P    -2.06435800  0.48536300 -0.00579100
C     2.53201500  1.47092800  1.43760600
H     2.42670900  0.86117100  2.33715600
H     3.55657300  1.84688700  1.37173400
H     1.84397000  2.31504200  1.52576700
C     3.45170500 -0.69631100 -0.10694000
H     3.35370100 -1.29995700 -1.01070000
H     4.40840600 -0.16625600 -0.12388700
H     3.41557700 -1.36105700  0.75716400
C     2.47286000  1.60173500 -1.39980100
H     1.78739200  2.45241300 -1.37409200
H     3.50194700  1.96826300 -1.35216100
H     2.31740900  1.08068500 -2.34673800
C    -2.47264000  1.65125500  1.33257800
H    -1.78721600  2.50051900  1.27731700
H    -3.50169800  2.01537300  1.26941500
H    -2.31922200  1.16430300  2.29777900
C    -3.45130900 -0.69251100  0.12446800
H    -4.40864700 -0.16346300  0.11318700
H    -3.40977300 -1.39336600 -0.71046200
H    -3.35742400 -1.25710500  1.05347100
C    -2.53294900  1.41728300 -1.49829400
H    -2.42711300  0.77514500 -2.37500100
H    -3.55747200  1.79572200 -1.44720600
H    -1.84466200  2.25747600 -1.61717300
H    -0.82756100 -1.87994000  0.06958200
H     0.82956100 -1.87713200  0.06022000

Pt_irc0002.wfn

