%chk=Pt_irc0074.chk
%nprocshared=24
%mem=10gb
#p pbe1pbe/def2tzvp em=gd3bj scrf=(smd,solvent=benzene) out=wfn

irc

0 1
Pt   -0.00341100 -0.27261800  0.00551400
P     2.18349600  0.21672000 -0.00892700
P    -2.18582400  0.21939100  0.00054900
C     2.68524900  1.21351500  1.43324000
H     2.57527800  0.61814700  2.34175300
H     3.72233800  1.55096400  1.34629100
H     2.02712000  2.08009800  1.51584000
C     3.51539200 -1.02723900 -0.08294800
H     3.39718600 -1.62817800 -0.98725800
H     4.50604000 -0.56360100 -0.08529700
H     3.43291700 -1.69585300  0.77675300
C     2.62637500  1.31623400 -1.39497300
H     1.96944100  2.18756600 -1.38460700
H     3.66789300  1.64475500 -1.32906700
H     2.47384800  0.78928400 -2.33888200
C    -2.62301900  1.37494900  1.34216400
H    -1.95937200  2.24022300  1.29959200
H    -3.66183500  1.70864100  1.26092300
H    -2.47671900  0.88393200  2.30620400
C    -3.52761000 -1.01058000  0.12243700
H    -4.51394700 -0.53779400  0.10638000
H    -3.45206600 -1.71243400 -0.71088300
H    -3.41573200 -1.57638500  1.04981900
C    -2.68095100  1.16196700 -1.47996700
H    -2.57480600  0.53098200 -2.36457500
H    -3.71579900  1.50943800 -1.40654800
H    -2.01721800  2.02043200 -1.59603600
H     0.29375400 -3.02061400  0.04564900
H     0.50738200 -3.75842800  0.05974500

Pt_irc0074.wfn

