%chk=Pt_irc0014.chk
%nprocshared=24
%mem=10gb
#p pbe1pbe/def2tzvp em=gd3bj scrf=(smd,solvent=benzene) out=wfn

irc

0 1
Pt   -0.00004000 -0.46997700  0.01049300
P     2.08254300  0.44698900 -0.01785300
P    -2.08242600  0.44739500 -0.00349100
C     2.57501000  1.43188100  1.43516800
H     2.45672900  0.82634700  2.33613600
H     3.61399300  1.76674100  1.36198300
H     1.91872300  2.29978100  1.52398300
C     3.46276500 -0.75022800 -0.10045300
H     3.35314000 -1.35659600 -1.00216300
H     4.44103300 -0.25964800 -0.11163100
H     3.40331700 -1.41897800  0.76086200
C     2.51696500  1.55444000 -1.39970900
H     1.85971900  2.42608800 -1.38514800
H     3.55919800  1.88254700 -1.34359900
H     2.35782000  1.02863900 -2.34355500
C    -2.51721400  1.60611600  1.33548100
H    -1.86047000  2.47694000  1.28810300
H    -3.55960000  1.93127800  1.26668400
H    -2.35814500  1.11634000  2.29850800
C    -3.46257900 -0.74613300  0.12433100
H    -4.44104200 -0.25592000  0.11362900
H    -3.40118600 -1.44913700 -0.70912200
H    -3.35456600 -1.31549100  1.05005100
C    -2.57490900  1.37606000 -1.49297600
H    -2.45867700  0.73561400 -2.36977200
H    -3.61319100  1.71546200 -1.43194500
H    -1.91693000  2.23845300 -1.61619600
H    -0.48733300 -2.10112300  0.05817900
H     0.49119200 -2.10606300  0.04994200

Pt_irc0014.wfn

