%chk=Pt_irc0069.chk
%nprocshared=24
%mem=10gb
#p pbe1pbe/def2tzvp em=gd3bj scrf=(smd,solvent=benzene) out=wfn

irc

0 1
Pt   -0.00252500 -0.28502100  0.00568700
P     2.17896000  0.23187900 -0.00935300
P    -2.17714100  0.23118700  0.00049200
C     2.67941700  1.23151200  1.43176300
H     2.56954300  0.63852800  2.34178700
H     3.71630300  1.56932600  1.34363900
H     2.02136700  2.09848200  1.51244500
C     3.51564100 -1.00689400 -0.08309800
H     3.39790000 -1.60853800 -0.98697500
H     4.50556900 -0.54140800 -0.08657200
H     3.43498200 -1.67460000  0.77744000
C     2.62130100  1.33373800 -1.39424700
H     1.96384700  2.20480700 -1.38345400
H     3.66232400  1.66333000 -1.32589600
H     2.47062800  0.80860000 -2.33941800
C    -2.61838400  1.38759200  1.34062400
H    -1.95838300  2.25570200  1.29716000
H    -3.65833300  1.71707500  1.25680700
H    -2.47161800  0.89944800  2.30602100
C    -3.51953900 -0.99823600  0.12210500
H    -4.50713500 -0.52788600  0.10740600
H    -3.44315500 -1.69921700 -0.71191900
H    -3.40549500 -1.56465000  1.04890500
C    -2.67507100  1.17478400 -1.47887200
H    -2.56716500  0.54646300 -2.36511000
H    -3.71109700  1.51831900 -1.40354800
H    -2.01497600  2.03635500 -1.59345200
H    -0.01312300 -2.99189500  0.05338500
H     0.40046200 -3.62127600  0.05851400

Pt_irc0069.wfn

