%chk=Pt_irc0020.chk
%nprocshared=24
%mem=10gb
#p pbe1pbe/def2tzvp em=gd3bj scrf=(smd,solvent=benzene) out=wfn

irc

0 1
Pt   -0.00001500 -0.44613100  0.00960500
P     2.09807100  0.42334000 -0.01682500
P    -2.09807300  0.42369600 -0.00248500
C     2.60477200  1.40341500  1.43456500
H     2.47706600  0.80166000  2.33679300
H     3.64888600  1.72189800  1.36076300
H     1.96164700  2.28123500  1.52103400
C     3.46195500 -0.79375600 -0.09674200
H     3.34493200 -1.39961200 -0.99800800
H     4.44770900 -0.31836700 -0.10730900
H     3.39236900 -1.46096800  0.76518600
C     2.54969300  1.52238700 -1.39987500
H     1.90481900  2.40314500 -1.38685000
H     3.59661100  1.83515000 -1.34260400
H     2.38419300  0.99771100 -2.34325500
C    -2.54930800  1.57466400  1.33772400
H    -1.90472400  2.45446600  1.29097600
H    -3.59631800  1.88471300  1.26872200
H    -2.38359700  1.08627500  2.30033900
C    -3.46205500 -0.78940200  0.12417500
H    -4.44785000 -0.31408100  0.11446600
H    -3.39138100 -1.49056500 -0.71027200
H    -3.34608600 -1.35865000  1.04913500
C    -2.60497800  1.34716300 -1.49036600
H    -2.47977600  0.71002700 -2.36834900
H    -3.64831800  1.67052200 -1.42784300
H    -1.95999500  2.21938500 -1.61219800
H    -0.46545900 -2.11320300  0.05512200
H     0.46728500 -2.11468000  0.04742200

Pt_irc0020.wfn

