%chk=Pt_irc0084.chk
%nprocshared=24
%mem=10gb
#p pbe1pbe/def2tzvp em=gd3bj scrf=(smd,solvent=benzene) out=wfn

irc

0 1
Pt   -0.00445200 -0.24495600  0.00503900
P     2.19344200  0.19194900 -0.00806500
P    -2.20096100  0.19759900  0.00068200
C     2.72668500  1.16909400  1.43559700
H     2.59321800  0.57720200  2.34318800
H     3.77469800  1.47184000  1.35223800
H     2.09797100  2.05757100  1.51709500
C     3.47819700 -1.09984900 -0.08196500
H     3.33696400 -1.69892400 -0.98404700
H     4.48365200 -0.66919400 -0.08930500
H     3.37684300 -1.76123300  0.78107700
C     2.67048700  1.27422600 -1.39569400
H     2.04150400  2.16615800 -1.38513800
H     3.72193300  1.57004400 -1.33285800
H     2.49841200  0.75137100 -2.33849200
C    -2.66417400  1.34030300  1.34408100
H    -2.02186100  2.22160900  1.30042300
H    -3.71101600  1.64886900  1.26675800
H    -2.50224900  0.85216300  2.30707300
C    -3.50912600 -1.06755500  0.12406400
H    -4.50630600 -0.61818700  0.10930000
H    -3.41744800 -1.76674300 -0.70977400
H    -3.38211700 -1.63008700  1.05140700
C    -2.72012400  1.12529700 -1.48054000
H    -2.59636100  0.49644400 -2.36434700
H    -3.76347800  1.44661200 -1.40879600
H    -2.07823200  2.00032200 -1.59681200
H     0.57259700 -2.80917900  0.03533000
H     0.78851300 -3.53452900  0.04621500

Pt_irc0084.wfn

