%chk=Pt_irc0082.chk
%nprocshared=24
%mem=10gb
#p pbe1pbe/def2tzvp em=gd3bj scrf=(smd,solvent=benzene) out=wfn

irc

0 1
Pt   -0.00430300 -0.25161300  0.00513700
P     2.19074100  0.19673500 -0.00825300
P    -2.19796900  0.20245000  0.00065000
C     2.71533000  1.17887600  1.43528400
H     2.58805600  0.58580400  2.34299000
H     3.76033900  1.49170200  1.35139900
H     2.07813200  2.06124000  1.51704900
C     3.48735300 -1.08324300 -0.08225000
H     3.35261300 -1.68223400 -0.98540000
H     4.48902700 -0.64381200 -0.08753200
H     3.39046100 -1.74687700  0.77961100
C     2.65830000  1.28359700 -1.39564800
H     2.02144300  2.16990100 -1.38475000
H     3.70706800  1.58873900 -1.33261000
H     2.49098000  0.75967000 -2.33870200
C    -2.65283100  1.34885500  1.34381800
H    -2.00370000  2.22513700  1.30030100
H    -3.69720000  1.66553400  1.26596400
H    -2.49517700  0.85965400  2.30697400
C    -3.51653100 -1.05200900  0.12360600
H    -4.51006900 -0.59465600  0.10857000
H    -3.43029700 -1.75192000 -0.71021100
H    -3.39437200 -1.61557600  1.05097600
C    -2.70949400  1.13443000 -1.48060900
H    -2.59077500  0.50473800 -2.36450600
H    -3.75021800  1.46415800 -1.40891300
H    -2.06056500  2.00425100 -1.59670100
H     0.55317900 -2.83895300  0.03869800
H     0.76847300 -3.56427100  0.05103500

Pt_irc0082.wfn

