%chk=Pt_irc0048.chk
%nprocshared=24
%mem=10gb
#p pbe1pbe/def2tzvp em=gd3bj scrf=(smd,solvent=benzene) out=wfn

irc

0 1
Pt    0.00007400 -0.33279300  0.00675700
P     2.15788900  0.29660400 -0.01166500
P    -2.15806800  0.29585300 -0.00081100
C     2.68892900  1.26969100  1.43481200
H     2.54955500  0.67555900  2.34025200
H     3.73916100  1.56703400  1.35770900
H     2.06260700  2.15962400  1.51633000
C     3.47819500 -0.96884400 -0.08334800
H     3.34964000 -1.57087200 -0.98583900
H     4.47814700 -0.52451200 -0.08896600
H     3.38650600 -1.63261100  0.77950700
C     2.63809800  1.37497200 -1.40004200
H     2.01119600  2.26817000 -1.39085900
H     3.69148500  1.66559200 -1.34185600
H     2.46192100  0.84990700 -2.34110600
C    -2.63866300  1.42742600  1.34442800
H    -2.01152400  2.31943600  1.30119000
H    -3.69192100  1.71582500  1.27419900
H    -2.46346000  0.93906500  2.30522800
C    -3.47792800 -0.96626100  0.12038500
H    -4.47805100 -0.52245300  0.10811400
H    -3.38569900 -1.66359800 -0.71551100
H    -3.34940900 -1.53204500  1.04604300
C    -2.68926900  1.21127100 -1.48434100
H    -2.55000100  0.58176100 -2.36558100
H    -3.73945600  1.51157600 -1.41901400
H    -2.06276100  2.09714600 -1.60098600
H    -0.39814100 -2.30074800  0.05891600
H     0.39908100 -2.29989900  0.04944200

Pt_irc0048.wfn

