%chk=Pt_irc0055.chk
%nprocshared=24
%mem=10gb
#p pbe1pbe/def2tzvp em=gd3bj scrf=(smd,solvent=benzene) out=wfn

irc

0 1
Pt    0.00001400 -0.31238300  0.00628000
P     2.16427400  0.26559200 -0.01026000
P    -2.16426300  0.26473900  0.00015100
C     2.68080800  1.25516300  1.43194600
H     2.55503900  0.66455500  2.34149100
H     3.72524100  1.57030700  1.34796300
H     2.04059800  2.13554300  1.51042100
C     3.49689600 -0.98267000 -0.08296500
H     3.37476800 -1.58462500 -0.98629900
H     4.49194600 -0.52758000 -0.08758800
H     3.41181800 -1.64840500  0.77895200
C     2.62605100  1.35803900 -1.39595000
H     1.98577500  2.24175900 -1.38422800
H     3.67404600  1.66588100 -1.33108000
H     2.46220700  0.83534700 -2.34034900
C    -2.62726200  1.41096800  1.34119600
H    -1.98661900  2.29330200  1.29563200
H    -3.67507500  1.71629000  1.26289800
H    -2.46491400  0.92562300  2.30557200
C    -3.49679400 -0.97994900  0.12132200
H    -4.49191300 -0.52520900  0.10705700
H    -3.41091400 -1.67940900 -0.71338300
H    -3.37540200 -1.54550900  1.04797500
C    -2.68011800  1.19602400 -1.48060800
H    -2.55446100  0.56927000 -2.36566000
H    -3.72444000  1.51466000 -1.40949800
H    -2.03955100  2.07228400 -1.59426300
H    -0.37842300 -2.66950500  0.04753400
H     0.38224800 -2.67991300  0.03737500

Pt_irc0055.wfn

