%chk=Pt_irc0094.chk
%nprocshared=24
%mem=10gb
#p pbe1pbe/def2tzvp em=gd3bj scrf=(smd,solvent=benzene) out=wfn

irc

0 1
Pt   -0.00426900 -0.21022300  0.00452700
P     2.20695400  0.16830800 -0.00745500
P    -2.21367300  0.17360900  0.00117000
C     2.78159200  1.12166500  1.43593700
H     2.62033900  0.53678200  2.34356000
H     3.84224800  1.37677900  1.35375200
H     2.19358100  2.03771800  1.51625400
C     3.43209800 -1.17984900 -0.07951700
H     3.26330100 -1.77432700 -0.97980700
H     4.45542700 -0.79377400 -0.08931400
H     3.30307200 -1.83358800  0.78555100
C     2.73113800  1.22661200 -1.39608400
H     2.14177100  2.14523900 -1.38767300
H     3.79444800  1.47617300 -1.33311000
H     2.53679500  0.70985400 -2.33792300
C    -2.72406400  1.29435600  1.34558000
H    -2.12166600  2.20342000  1.30097400
H    -3.78374200  1.55605900  1.27068400
H    -2.53829400  0.81347100  2.30792700
C    -3.46159000 -1.15019800  0.12599200
H    -4.47839600 -0.74725100  0.11230800
H    -3.33831800 -1.84425500 -0.70802600
H    -3.30739100 -1.70632600  1.05304900
C    -2.77485800  1.07730300 -1.47928100
H    -2.62341300  0.45455200 -2.36310400
H    -3.83153900  1.35134100 -1.40675000
H    -2.17312200  1.98041100 -1.59601100
H     0.53025200 -2.75445600  0.01729500
H     0.73385400 -3.48410900  0.02176000

Pt_irc0094.wfn

