%chk=Pt_irc0032.chk
%nprocshared=24
%mem=10gb
#p pbe1pbe/def2tzvp em=gd3bj scrf=(smd,solvent=benzene) out=wfn

irc

0 1
Pt   -0.00000300 -0.39886900  0.00817800
P     2.12792900  0.37870300 -0.01488400
P    -2.12792500  0.37860800 -0.00118800
C     2.66406800  1.34623900  1.43424000
H     2.51662200  0.75176900  2.33821700
H     3.71764200  1.63181000  1.36009400
H     2.04834900  2.24370000  1.51715000
C     3.45223800 -0.88224000 -0.08939300
H     3.31830400 -1.48560700 -0.99004500
H     4.45274100 -0.43870000 -0.09903600
H     3.36063900 -1.54477900  0.77416200
C     2.61556600  1.45836100 -1.40084400
H     1.99854600  2.35875400 -1.39074900
H     3.67175300  1.73815200 -1.34271600
H     2.43446600  0.93681600 -2.34302300
C    -2.61537700  1.51077500  1.34232700
H    -1.99806900  2.40994800  1.29803700
H    -3.67145000  1.78849500  1.27321800
H    -2.43482700  1.02548600  2.30378200
C    -3.45239100 -0.87843500  0.12193300
H    -4.45288400 -0.43485800  0.11351600
H    -3.36032400 -1.57437800 -0.71488500
H    -3.31904100 -1.44597100  1.04566900
C    -2.66429300  1.28934200 -1.48657300
H    -2.51830700  0.65961100 -2.36660800
H    -3.71746800  1.57891900 -1.42289900
H    -2.04748800  2.18201900 -1.60516300
H    -0.43837300 -2.12810000  0.05199700
H     0.44191900 -2.13650200  0.04352900

Pt_irc0032.wfn

