%chk=Pt_irc0041.chk
%nprocshared=24
%mem=10gb
#p pbe1pbe/def2tzvp em=gd3bj scrf=(smd,solvent=benzene) out=wfn

irc

0 1
Pt    0.00005800 -0.36073000  0.00735000
P     2.14783800  0.33862400 -0.01306800
P    -2.14801500  0.33803200 -0.00086400
C     2.69532100  1.29887600  1.43595100
H     2.53981500  0.70544800  2.33929800
H     3.75246800  1.57171500  1.36309900
H     2.08984600  2.20313500  1.51860800
C     3.45295200 -0.94308400 -0.08484400
H     3.31321600 -1.54483800 -0.98582300
H     4.45947900 -0.51367800 -0.09267200
H     3.35160000 -1.60413700  0.77892500
C     2.64786400  1.40665800 -1.40265800
H     2.04147000  2.31405600 -1.39480100
H     3.70768000  1.67343200 -1.34737400
H     2.45865100  0.88349200 -2.34234400
C    -2.64833600  1.45930200  1.34602900
H    -2.04152800  2.36545000  1.30351000
H    -3.70798800  1.72422900  1.27984000
H    -2.45996700  0.97270700  2.30532800
C    -3.45296700 -0.94002500  0.12044700
H    -4.45953900 -0.51077000  0.11087200
H    -3.35108000 -1.63442100 -0.71668900
H    -3.31364800 -1.50596000  1.04441000
C    -2.69529200  1.24085900 -1.48643800
H    -2.54053800  0.61204500 -2.36566000
H    -3.75221500  1.51714100 -1.42405700
H    -2.08915600  2.14066800 -1.60495200
H    -0.42116900 -2.16204200  0.04797200
H     0.42222200 -2.16267200  0.04040700

Pt_irc0041.wfn

