%chk=Pt_irc0056.chk
%nprocshared=24
%mem=10gb
#p pbe1pbe/def2tzvp em=gd3bj scrf=(smd,solvent=benzene) out=wfn

irc

0 1
Pt   -0.00003800 -0.30955800  0.00620600
P     2.16545100  0.26177500 -0.01016000
P    -2.16527100  0.26083800  0.00022500
C     2.68012900  1.25291800  1.43172800
H     2.55580800  0.66254600  2.34160900
H     3.72384400  1.57028300  1.34726600
H     2.03817300  2.13206800  1.50989300
C     3.49902700 -0.98492900 -0.08297700
H     3.37769900 -1.58677000 -0.98647100
H     4.49345600 -0.52851600 -0.08736700
H     3.41461800 -1.65092800  0.77877700
C     2.62496100  1.35568100 -1.39556200
H     1.98299000  2.23817700 -1.38344700
H     3.67228200  1.66569400 -1.33027700
H     2.46233000  0.83318600 -2.34026200
C    -2.62605000  1.40847400  1.34098400
H    -1.98369200  2.28956000  1.29518900
H    -3.67317600  1.71595700  1.26206100
H    -2.46506000  0.92328200  2.30564600
C    -3.49896200 -0.98213400  0.12143200
H    -4.49341100 -0.52598000  0.10686000
H    -3.41383000 -1.68188500 -0.71308000
H    -3.37846000 -1.54758400  1.04824800
C    -2.67930500  1.19380800 -1.48021400
H    -2.55520700  0.56731000 -2.36565000
H    -3.72288700  1.51472400 -1.40860500
H    -2.03695300  2.06881900 -1.59350800
H    -0.37617400 -2.71815600  0.04860700
H     0.38193400 -2.74260400  0.03865900

Pt_irc0056.wfn

