%chk=Pt_irc0005.chk
%nprocshared=24
%mem=10gb
#p pbe1pbe/def2tzvp em=gd3bj scrf=(smd,solvent=benzene) out=wfn

irc

0 1
Pt    0.00000500 -0.50219600  0.01187600
P     2.06539300  0.47970900 -0.01985600
P    -2.06536600  0.48003700 -0.00544300
C     2.53678900  1.46722700  1.43699300
H     2.42742700  0.86042100  2.33774800
H     3.56245600  1.83958000  1.37029600
H     1.85292300  2.31581400  1.52500300
C     3.45432400 -0.70081700 -0.10607500
H     3.35357900 -1.30211500 -1.01081600
H     4.41357800 -0.17456500 -0.12203900
H     3.41327000 -1.36450500  0.75816700
C     2.47746800  1.59665800 -1.39974000
H     1.79555800  2.45139600 -1.37576800
H     3.50730100  1.96052200 -1.35065800
H     2.31981400  1.07781200 -2.34724200
C    -2.47747800  1.64656300  1.33275600
H    -1.79569700  2.49996400  1.27860600
H    -3.50733800  2.00783000  1.26854700
H    -2.32140500  1.16203800  2.29847600
C    -3.45392700 -0.69702200  0.12433300
H    -4.41376100 -0.17171600  0.11305000
H    -3.40808600 -1.39634600 -0.71120700
H    -3.35672400 -1.25975800  1.05382000
C    -2.53744300  1.41315800 -1.49746400
H    -2.42817400  0.77362900 -2.37534200
H    -3.56292900  1.78843800 -1.44518700
H    -1.85311100  2.25758200 -1.61693100
H    -0.65899800 -1.97055400  0.06986700
H     0.66178200 -1.97024400  0.06181400

Pt_irc0005.wfn

