%chk=Pt_irc0017.chk
%nprocshared=24
%mem=10gb
#p pbe1pbe/def2tzvp em=gd3bj scrf=(smd,solvent=benzene) out=wfn

irc

0 1
Pt    0.00002700 -0.45799700  0.01002900
P     2.09021300  0.43496100 -0.01731000
P    -2.09028900  0.43527900 -0.00294700
C     2.58973000  1.41765100  1.43486000
H     2.46689600  0.81397800  2.33647000
H     3.63132200  1.74431100  1.36126000
H     1.94003700  2.29053100  1.52256700
C     3.46285100 -0.77169800 -0.09861200
H     3.34969300 -1.37786600 -1.00010000
H     4.44485100 -0.28860200 -0.10942900
H     3.39845100 -1.43980400  0.76295000
C     2.53302700  1.53842100 -1.39975500
H     1.88190100  2.41458700 -1.38602000
H     3.57762700  1.85891000 -1.34301500
H     2.37087700  1.01310600 -2.34335800
C    -2.53294800  1.59045500  1.33657900
H    -1.88223500  2.46574300  1.28948400
H    -3.57767800  1.90809400  1.26765300
H    -2.37067600  1.10136200  2.29941800
C    -3.46291100 -0.76743400  0.12435100
H    -4.44504400 -0.28459600  0.11414000
H    -3.39695900 -1.46961500 -0.70954600
H    -3.35098100 -1.33679000  1.04967900
C    -2.58976500  1.36159800 -1.49162800
H    -2.46928800  0.72273700 -2.36900600
H    -3.63058900  1.69306500 -1.42972400
H    -1.93821600  2.22886200 -1.61426300
H    -0.47715800 -2.11295300  0.05680700
H     0.47456100 -2.11121800  0.04816700

Pt_irc0017.wfn

