%chk=Pt_irc0026.chk
%nprocshared=24
%mem=10gb
#p pbe1pbe/def2tzvp em=gd3bj scrf=(smd,solvent=benzene) out=wfn

irc

0 1
Pt    0.00001500 -0.42263300  0.00885200
P     2.11316800  0.40122400 -0.01587300
P    -2.11325000  0.40133800 -0.00179400
C     2.63507900  1.37508900  1.43428700
H     2.49670300  0.77712700  2.33744600
H     3.68448900  1.67579700  1.36049600
H     2.00658900  2.26356200  1.51862800
C     3.45756000 -0.83808100 -0.09298200
H     3.33190600 -1.44298500 -0.99379300
H     4.45107600 -0.37912500 -0.10309300
H     3.37666000 -1.50307600  0.76975500
C     2.58352700  1.49055400 -1.40037900
H     1.95330200  2.38178100 -1.38888300
H     3.63554500  1.78577700 -1.34257700
H     2.41001900  0.96739500 -2.34314200
C    -2.58283800  1.54298100  1.34012700
H    -1.95245400  2.43300200  1.29454300
H    -3.63479700  1.83599900  1.27120600
H    -2.40942000  1.05605500  2.30211200
C    -3.45787400 -0.83381000  0.12323400
H    -4.45133800 -0.37471700  0.11441700
H    -3.37645400 -1.53245800 -0.71243100
H    -3.33292600 -1.40254000  1.04740900
C    -2.63547000  1.31853300 -1.48825300
H    -2.49937300  0.68517000 -2.36732300
H    -3.68423300  1.62386200 -1.42506800
H    -2.00537600  2.20171100 -1.60833000
H    -0.45185600 -2.12217300  0.05577400
H     0.45177700 -2.12218500  0.04310100

Pt_irc0026.wfn

