%chk=Pt_irc0040.chk
%nprocshared=24
%mem=10gb
#p pbe1pbe/def2tzvp em=gd3bj scrf=(smd,solvent=benzene) out=wfn

irc

0 1
Pt    0.00006100 -0.36526000  0.00742200
P     2.14581700  0.34424700 -0.01327100
P    -2.14600100  0.34371900 -0.00084400
C     2.69379300  1.30425600  1.43573300
H     2.53862100  0.71067000  2.33900500
H     3.75082800  1.57693100  1.36248200
H     2.08840800  2.20840800  1.51876900
C     3.45119200 -0.93730400 -0.08521600
H     3.31131200 -1.53923800 -0.98603100
H     4.45780700 -0.50807900 -0.09326600
H     3.35001700 -1.59837300  0.77854500
C     2.64649500  1.41242400 -1.40252200
H     2.04012100  2.31971100 -1.39490100
H     3.70619700  1.67903200 -1.34662900
H     2.45776600  0.88928100 -2.34230600
C    -2.64701200  1.46507000  1.34573800
H    -2.04030900  2.37118100  1.30346300
H    -3.70657800  1.72971700  1.27893400
H    -2.45910000  0.97850600  2.30513400
C    -3.45122800 -0.93416300  0.12053900
H    -4.45789300 -0.50508400  0.11118100
H    -3.34948000 -1.62854600 -0.71660900
H    -3.31178100 -1.50032300  1.04432800
C    -2.69370800  1.24638800 -1.48635700
H    -2.53917700  0.61747500 -2.36552700
H    -3.75054900  1.52246200 -1.42364300
H    -2.08769100  2.14612000 -1.60513700
H    -0.42414100 -2.15124500  0.04831300
H     0.42501800 -2.15069400  0.04020500

Pt_irc0040.wfn

