%chk=Pt_irc0043.chk
%nprocshared=24
%mem=10gb
#p pbe1pbe/def2tzvp em=gd3bj scrf=(smd,solvent=benzene) out=wfn

irc

0 1
Pt    0.00004700 -0.35176100  0.00721700
P     2.15166300  0.32659300 -0.01269400
P    -2.15183000  0.32592500 -0.00094200
C     2.69603700  1.28832100  1.43631500
H     2.54254200  0.69427000  2.33959800
H     3.75215400  1.56538000  1.36376200
H     2.08682100  2.19006300  1.51876400
C     3.45872700 -0.95323200 -0.08420000
H     3.32120100 -1.55493100 -0.98557700
H     4.46416700 -0.52133200 -0.09132400
H     3.35880300 -1.61477500  0.77939400
C     2.64795800  1.39539100 -1.40278700
H     2.03797700  2.30035200 -1.39472400
H     3.70683300  1.66623500 -1.34830100
H     2.45996300  0.87125600 -2.34216900
C    -2.64826200  1.44798500  1.34644100
H    -2.03774600  2.35159800  1.30382300
H    -3.70694300  1.71713600  1.28097700
H    -2.46110500  0.96033000  2.30543500
C    -3.45866800 -0.95030900  0.12030200
H    -4.46417200 -0.51861900  0.10998000
H    -3.35828800 -1.64531600 -0.71654600
H    -3.32143900 -1.51602700  1.04473400
C    -2.69621500  1.23008300 -1.48656400
H    -2.54358500  0.60058500 -2.36567600
H    -3.75210700  1.51052900 -1.42451600
H    -2.08639700  2.12740100 -1.60492700
H    -0.41429700 -2.18259300  0.04861600
H     0.41658600 -2.18368500  0.04095900

Pt_irc0043.wfn

