%chk=Pt_irc0077.chk
%nprocshared=24
%mem=10gb
#p pbe1pbe/def2tzvp em=gd3bj scrf=(smd,solvent=benzene) out=wfn

irc

0 1
Pt   -0.00389100 -0.26651700  0.00540000
P     2.18525000  0.20934900 -0.00866600
P    -2.19005600  0.21445600  0.00056200
C     2.69232700  1.20229800  1.43409900
H     2.57640300  0.60802900  2.34257200
H     3.73171900  1.53315400  1.34908900
H     2.03983500  2.07336700  1.51528200
C     3.50833300 -1.04363300 -0.08279900
H     3.38720200 -1.64346200 -0.98738100
H     4.50128400 -0.58488000 -0.08518800
H     3.42266900 -1.71138600  0.77717100
C     2.63366300  1.30562900 -1.39535400
H     1.98242800  2.18130800 -1.38337900
H     3.67735700  1.62769500 -1.33165300
H     2.47545800  0.78010500 -2.33910800
C    -2.63013800  1.36788900  1.34285800
H    -1.96982300  2.23568700  1.29908800
H    -3.67032500  1.69779400  1.26360000
H    -2.47998900  0.87748900  2.30660800
C    -3.52735700 -1.02025400  0.12264500
H    -4.51469300 -0.54972400  0.10655300
H    -3.44994300 -1.72180800 -0.71072600
H    -3.41382000 -1.58544100  1.05018000
C    -2.68803000  1.15461500 -1.48034600
H    -2.57823900  0.52403200 -2.36477400
H    -3.72422500  1.49829900 -1.40819300
H    -2.02740800  2.01561100 -1.59573600
H     0.43001300 -2.96134500  0.04025700
H     0.63785100 -3.68347200  0.06153300

Pt_irc0077.wfn

