%chk=Pt_irc0091.chk
%nprocshared=24
%mem=10gb
#p pbe1pbe/def2tzvp em=gd3bj scrf=(smd,solvent=benzene) out=wfn

irc

0 1
Pt   -0.00442600 -0.22071900  0.00469600
P     2.20305700  0.17535200 -0.00758600
P    -2.21016800  0.18076300  0.00095400
C     2.76581300  1.13568700  1.43593100
H     2.61238300  0.54867100  2.34353200
H     3.82307700  1.40448000  1.35349600
H     2.16602600  2.04404700  1.51652600
C     3.44602500 -1.15646500 -0.08046900
H     3.28469800 -1.75295900 -0.98081300
H     4.46423500 -0.75706300 -0.09061400
H     3.32596500 -1.81207500  0.78449900
C     2.71328900  1.24105200 -1.39588900
H     2.11213700  2.15200300 -1.38670200
H     3.77333200  1.50425200 -1.33307200
H     2.52533300  0.72245800 -2.33801400
C    -2.70605100  1.30856900  1.34502400
H    -2.09117200  2.20923800  1.30062600
H    -3.76199900  1.58481000  1.26944300
H    -2.52753600  0.82535700  2.30757800
C    -3.47683200 -1.12534000  0.12553300
H    -4.48784000 -0.70802900  0.11147900
H    -3.36327100 -1.82124200 -0.70833900
H    -3.33095400 -1.68344800  1.05275400
C    -2.75870700  1.09188900 -1.47976400
H    -2.61571500  0.46709500 -2.36355300
H    -3.81155000  1.38040900 -1.40742300
H    -2.14457000  1.98660800 -1.59643500
H     0.55387200 -2.76278100  0.02289000
H     0.76431200 -3.49034200  0.02853700

Pt_irc0091.wfn

