%chk=Pt_irc0101.chk
%nprocshared=24
%mem=10gb
#p pbe1pbe/def2tzvp em=gd3bj scrf=(smd,solvent=benzene) out=wfn

irc

0 1
Pt   -0.00376100 -0.18573100  0.00409200
P     2.21538600  0.15193200 -0.00713000
P    -2.22108600  0.15700700  0.00172700
C     2.81668400  1.08927200  1.43577100
H     2.63778300  0.50987200  2.34360500
H     3.88438600  1.31320000  1.35412700
H     2.25577300  2.02224600  1.51521000
C     3.39843400 -1.23316200 -0.07631700
H     3.21294600 -1.82272500 -0.97651800
H     4.43298100 -0.87825200 -0.08462500
H     3.24796800 -1.88195200  0.78897600
C     2.77180300  1.19200100 -1.39671300
H     2.20941600  2.12741300 -1.39097800
H     3.84177800  1.41079800 -1.33279200
H     2.56380300  0.67918900 -2.33778900
C    -2.76552800  1.25995900  1.34713300
H    -2.19263100  2.18792100  1.30270200
H    -3.83305200  1.48776100  1.27344900
H    -2.56348700  0.78451100  2.30889700
C    -3.42405300 -1.20736600  0.12650300
H    -4.45365900 -0.83840300  0.11392800
H    -3.27813700 -1.89618700 -0.70817500
H    -3.25034000 -1.75874700  1.05292900
C    -2.81111900  1.04301600 -1.47800100
H    -2.64006000  0.42557800 -2.36197200
H    -3.87595500  1.28322700 -1.40516100
H    -2.23859800  1.96495200 -1.59464800
H     0.46102600 -2.73743200  0.00378300
H     0.64477000 -3.47268800  0.00516800

Pt_irc0101.wfn

