%chk=Pt_irc0096.chk
%nprocshared=24
%mem=10gb
#p pbe1pbe/def2tzvp em=gd3bj scrf=(smd,solvent=benzene) out=wfn

irc

0 1
Pt   -0.00414100 -0.20322400  0.00440700
P     2.20946100  0.16362800 -0.00737500
P    -2.21589800  0.16884700  0.00133000
C     2.79184200  1.11237100  1.43591500
H     2.62546900  0.52897200  2.34356900
H     3.85462900  1.35849200  1.35389800
H     2.21161300  2.03339200  1.51602200
C     3.42267600 -1.19522700 -0.07874500
H     3.24904900 -1.78830600 -0.97902700
H     4.44930400 -0.81802200 -0.08816400
H     3.28757700 -1.84766500  0.78636400
C     2.74289200  1.21687000 -1.39624500
H     2.16131800  2.14045700 -1.38845900
H     3.80824200  1.45747800 -1.33309500
H     2.54445600  0.70130000 -2.33788100
C    -2.73601100  1.28469300  1.34599400
H    -2.14206200  2.19929900  1.30130000
H    -3.79807500  1.53662000  1.27153200
H    -2.54542700  0.80539700  2.30819100
C    -3.45113700 -1.16666600  0.12622700
H    -4.47170600 -0.77336900  0.11285200
H    -3.32140400 -1.85934600 -0.70794800
H    -3.29135300 -1.72147100  1.05312800
C    -2.78542200  1.06753000 -1.47893000
H    -2.62834000  0.44622200 -2.36278500
H    -3.84455100  1.33189200 -1.40630200
H    -2.19200600  1.97613200 -1.59566300
H     0.51210400 -2.74963300  0.01363100
H     0.71050200 -3.48081100  0.01722300

Pt_irc0096.wfn

