%chk=Pt_irc0080.chk
%nprocshared=24
%mem=10gb
#p pbe1pbe/def2tzvp em=gd3bj scrf=(smd,solvent=benzene) out=wfn

irc

0 1
Pt   -0.00410000 -0.25795000  0.00523900
P     2.18823700  0.20159000 -0.00842200
P    -2.19483900  0.20728500  0.00061800
C     2.70474600  1.18862200  1.43481300
H     2.58313800  0.59481600  2.34280800
H     3.74692300  1.51058400  1.35035100
H     2.05987600  2.06536300  1.51654300
C     3.49616800 -1.06689700 -0.08251400
H     3.36800900 -1.66538300 -0.98696000
H     4.49415500 -0.61911100 -0.08523000
H     3.40316300 -1.73304000  0.77786600
C     2.64691400  1.29279500 -1.39552800
H     2.00290300  2.17387800 -1.38422100
H     3.69314400  1.60643700 -1.33215200
H     2.48406900  0.76807100 -2.33891300
C    -2.64245100  1.35699300  1.34348100
H    -1.98759800  2.22898000  1.29991200
H    -3.68467600  1.68050000  1.26510500
H    -2.48843100  0.86709500  2.30686600
C    -3.52237200 -1.03777800  0.12317900
H    -4.51277900 -0.57370300  0.10782700
H    -3.44069300 -1.73832400 -0.71057200
H    -3.40438000 -1.60218200  1.05058800
C    -2.69972600  1.14311200 -1.48057300
H    -2.58535300  0.51289100 -2.36466200
H    -3.73814900  1.47999000 -1.40882700
H    -2.04484400  2.00848000 -1.59637300
H     0.51677800 -2.87950300  0.04155400
H     0.72988200 -3.60537300  0.05520900

Pt_irc0080.wfn

