%chk=Pt_irc0049.chk
%nprocshared=24
%mem=10gb
#p pbe1pbe/def2tzvp em=gd3bj scrf=(smd,solvent=benzene) out=wfn

irc

0 1
Pt    0.00007200 -0.32956500  0.00667400
P     2.15870400  0.29135300 -0.01141900
P    -2.15886300  0.29057200 -0.00071300
C     2.68730300  1.26732200  1.43429800
H     2.55045000  0.67372500  2.34044000
H     3.73652800  1.56783400  1.35589200
H     2.05846200  2.15552200  1.51537400
C     3.48154700 -0.97090400 -0.08323100
H     3.35420700 -1.57292400 -0.98589900
H     4.48066300 -0.52469900 -0.08866700
H     3.39108500 -1.63508000  0.77943400
C     2.63592300  1.37220600 -1.39925700
H     2.00655000  2.26366900 -1.38975900
H     3.68835400  1.66592900 -1.33967700
H     2.46215000  0.84752800 -2.34095000
C    -2.63667100  1.42471700  1.34371600
H    -2.00724500  2.31509900  1.30004900
H    -3.68903900  1.71592300  1.27202400
H    -2.46368400  0.93696600  2.30519400
C    -3.48121600 -0.96841400  0.12040800
H    -4.48051400 -0.52276000  0.10789900
H    -3.39019300 -1.66607200 -0.71534700
H    -3.35392200 -1.53425400  1.04619700
C    -2.68754800  1.20880900 -1.48369000
H    -2.55052200  0.57992600 -2.36568700
H    -3.73679600  1.51210700 -1.41730600
H    -2.05872600  2.09314200 -1.59964700
H    -0.39424200 -2.34770100  0.05950200
H     0.39523600 -2.34786200  0.04954500

Pt_irc0049.wfn

