%chk=Pt_irc0036.chk
%nprocshared=24
%mem=10gb
#p pbe1pbe/def2tzvp em=gd3bj scrf=(smd,solvent=benzene) out=wfn

irc

0 1
Pt    0.00003400 -0.38281200  0.00777400
P     2.13701300  0.36355600 -0.01411400
P    -2.13710500  0.36325500 -0.00092300
C     2.68188100  1.32603600  1.43478000
H     2.52853100  0.73262700  2.33850500
H     3.73825700  1.60123100  1.36104200
H     2.07456600  2.22903800  1.51749300
C     3.44901000 -0.91089600 -0.08711200
H     3.31034200 -1.51360600 -0.98756300
H     4.45389900 -0.47750300 -0.09613400
H     3.35080300 -1.57235400  0.77664900
C     2.63454500  1.43601900 -1.40166800
H     2.02608900  2.34202700 -1.39290900
H     3.69352300  1.70529900 -1.34446800
H     2.44808500  0.91413800 -2.34263400
C    -2.63485700  1.48854600  1.34409300
H    -2.02615000  2.39340000  1.30087800
H    -3.69371500  1.75573800  1.27595400
H    -2.44916800  1.00311500  2.30451800
C    -3.44909100 -0.90741300  0.12111600
H    -4.45398900 -0.47404200  0.11251000
H    -3.35034200 -1.60218600 -0.71601900
H    -3.31097700 -1.47438500  1.04457500
C    -2.68182900  1.26872100 -1.48615600
H    -2.52928900  0.64010700 -2.36590900
H    -3.73795800  1.54747200 -1.42291200
H    -2.07375000  2.16722000 -1.60448600
H    -0.43264000 -2.13214800  0.04985500
H     0.43422100 -2.13443900  0.04176500

Pt_irc0036.wfn

