%chk=Pt_irc0003.chk
%nprocshared=24
%mem=10gb
#p pbe1pbe/def2tzvp em=gd3bj scrf=(smd,solvent=benzene) out=wfn

irc

0 1
Pt    0.00000100 -0.50539600  0.01201500
P     2.06469000  0.48305100 -0.02008900
P    -2.06466100  0.48337700 -0.00567100
C     2.53321400  1.46985500  1.43738200
H     2.42628400  0.86182800  2.33777500
H     3.55717700  1.84691200  1.37166500
H     1.84519500  2.31463300  1.52496500
C     3.45260300 -0.69755400 -0.10670500
H     3.35391400 -1.29957400 -1.01128700
H     4.40884700 -0.16656000 -0.12360800
H     3.41557800 -1.36131600  0.75780500
C     2.47399100  1.60025500 -1.39971600
H     1.78850400  2.45156900 -1.37373400
H     3.50236800  1.96826400 -1.35202800
H     2.31716400  1.08120600 -2.34737700
C    -2.47384700  1.64989000  1.33257000
H    -1.78839700  2.49975400  1.27691700
H    -3.50221300  2.01542900  1.26934900
H    -2.31896500  1.16492400  2.29839700
C    -3.45220400 -0.69375400  0.12442900
H    -4.40908600 -0.16377000  0.11313300
H    -3.40983600 -1.39349200 -0.71109700
H    -3.35753900 -1.25685900  1.05404700
C    -2.53406100  1.41609800 -1.49800200
H    -2.42673600  0.77567700 -2.37564200
H    -3.55795700  1.79575900 -1.44711400
H    -1.84578100  2.25696200 -1.61643400
H    -0.76877900 -1.90980400  0.07036400
H     0.77271600 -1.90901400  0.06155300

Pt_irc0003.wfn

