%chk=Pt_irc0001.chk
%nprocshared=24
%mem=10gb
#p pbe1pbe/def2tzvp em=gd3bj scrf=(smd,solvent=benzene) out=wfn

irc

0 1
Pt    0.00000200 -0.50834800  0.01217000
P     2.06402700  0.48757400 -0.02035900
P    -2.06399900  0.48787300 -0.00593300
C     2.53111800  1.47198800  1.43789100
H     2.42739400  0.85982400  2.33618400
H     3.55692600  1.84483000  1.37150300
H     1.84451300  2.31638300  1.52732200
C     3.45065500 -0.69510800 -0.10714100
H     3.35288100 -1.30088400 -1.00977200
H     4.40884800 -0.16810900 -0.12391000
H     3.41447200 -1.36116800  0.75638100
C     2.47204700  1.60319600 -1.39999300
H     1.78790000  2.45413800 -1.37563000
H     3.50247500  1.96621000 -1.35198300
H     2.31831000  1.07909700 -2.34571200
C    -2.47175100  1.65261800  1.33268100
H    -1.78766000  2.50222400  1.27876000
H    -3.50213600  2.01331500  1.26935800
H    -2.32005300  1.16268000  2.29682700
C    -3.45025900 -0.69130400  0.12448900
H    -4.40908400 -0.16527800  0.11327700
H    -3.40874900 -1.39358000 -0.70964900
H    -3.35659600 -1.25790200  1.05257800
C    -2.53214300  1.41845100 -1.49865900
H    -2.42783800  0.77384500 -2.37394400
H    -3.55793500  1.79369600 -1.44690100
H    -1.84525400  2.25883300 -1.61878900
H    -0.88224600 -1.84571700  0.06802500
H     0.88655000 -1.84525800  0.05819400

Pt_irc0001.wfn

