%chk=Pt_irc0071.chk
%nprocshared=24
%mem=10gb
#p pbe1pbe/def2tzvp em=gd3bj scrf=(smd,solvent=benzene) out=wfn

irc

0 1
Pt   -0.00283400 -0.27954000  0.00563000
P     2.18130500  0.22491300 -0.00915600
P    -2.18104300  0.22525500  0.00053100
C     2.68083200  1.22451500  1.43208600
H     2.57210700  0.63104000  2.34192200
H     3.71703400  1.56435700  1.34411200
H     2.02092300  2.09003300  1.51290700
C     3.51734200 -1.01452000 -0.08306100
H     3.40043800 -1.61594100 -0.98719500
H     4.50678700 -0.54812000 -0.08613300
H     3.43723700 -1.68268100  0.77717500
C     2.62223800  1.32673600 -1.39427200
H     1.96310500  2.19651200 -1.38317100
H     3.66270300  1.65813700 -1.32656900
H     2.47193200  0.80114200 -2.33923800
C    -2.61894500  1.38215300  1.34102900
H    -1.95582100  2.24785800  1.29735700
H    -3.65783900  1.71516700  1.25824100
H    -2.47298200  0.89301800  2.30603300
C    -3.52416500 -1.00326900  0.12233400
H    -4.51077000 -0.53093600  0.10726200
H    -3.44901500 -1.70470400 -0.71141400
H    -3.41149300 -1.56964200  1.04931800
C    -2.67628800  1.16935900 -1.47917900
H    -2.56972000  0.54023700 -2.36500400
H    -3.71125900  1.51620500 -1.40481300
H    -2.01313500  2.02858100 -1.59361400
H     0.10139000 -3.02128800  0.04920400
H     0.42649400 -3.69905900  0.05673300

Pt_irc0071.wfn

