%chk=Pt_irc0022.chk
%nprocshared=24
%mem=10gb
#p pbe1pbe/def2tzvp em=gd3bj scrf=(smd,solvent=benzene) out=wfn

irc

0 1
Pt   -0.00000800 -0.43837600  0.00934300
P     2.10312400  0.41605300 -0.01651500
P    -2.10313700  0.41630700 -0.00222700
C     2.61496300  1.39407700  1.43443900
H     2.48346900  0.79366600  2.33701500
H     3.66095700  1.70640300  1.36072400
H     1.97686400  2.27561800  1.52004800
C     3.46059300 -0.80848000 -0.09547400
H     3.34072000 -1.41407100 -0.99656900
H     4.44895900 -0.33853000 -0.10590600
H     3.38727200 -1.47496700  0.76673900
C     2.56106800  1.51185200 -1.40005000
H     1.92109100  2.39615900 -1.38749200
H     3.60974800  1.81869600 -1.34264900
H     2.39281500  0.98767800 -2.34321900
C    -2.56049000  1.56422000  1.33853500
H    -1.92064600  2.44747500  1.29207500
H    -3.60920700  1.86853100  1.26963000
H    -2.39210800  1.07634600  2.30094600
C    -3.46080700 -0.80410400  0.12393000
H    -4.44917200 -0.33413300  0.11458000
H    -3.38663300 -1.50444900 -0.71093600
H    -3.34184100 -1.37323800  1.04860600
C    -2.61523600  1.33769800 -1.48961100
H    -2.48628600  0.70186100 -2.36798900
H    -3.66047300  1.65488500 -1.42687100
H    -1.97531500  2.21370200 -1.61079100
H    -0.46086700 -2.11467600  0.05517200
H     0.46156100 -2.11603800  0.04596400

Pt_irc0022.wfn

