%chk=Pt_irc0073.chk
%nprocshared=24
%mem=10gb
#p pbe1pbe/def2tzvp em=gd3bj scrf=(smd,solvent=benzene) out=wfn

irc

0 1
Pt   -0.00316500 -0.27444500  0.00554800
P     2.18296300  0.21893900 -0.00899000
P    -2.18452800  0.22079100  0.00053900
C     2.68375300  1.21670200  1.43283400
H     2.57476600  0.62178500  2.34176400
H     3.72030900  1.55549500  1.34536900
H     2.02446400  2.08242000  1.51499600
C     3.51652000 -1.02338700 -0.08299300
H     3.39900100 -1.62460100 -0.98723200
H     4.50660800 -0.55856700 -0.08558700
H     3.43513000 -1.69195500  0.77686900
C     2.62490700  1.31923100 -1.39469900
H     1.96663700  2.18952700 -1.38419800
H     3.66583900  1.64929000 -1.32803100
H     2.47362600  0.79252300 -2.33894000
C    -2.62158100  1.37676500  1.34182900
H    -1.95759000  2.24170600  1.29894100
H    -3.66025000  1.71068700  1.26022300
H    -2.47561700  0.88606700  2.30608900
C    -3.52695900 -1.00866100  0.12243000
H    -4.51327200 -0.53587900  0.10671500
H    -3.45180600 -1.71048200 -0.71100200
H    -3.41502500 -1.57481000  1.04963800
C    -2.67939800  1.16386000 -1.47974000
H    -2.57333100  0.53324600 -2.36462600
H    -3.71413100  1.51152900 -1.40623100
H    -2.01536800  2.02211700 -1.59526600
H     0.22425800 -3.03639100  0.04758100
H     0.47891900 -3.73676200  0.05778000

Pt_irc0073.wfn

