%chk=Pt_irc0012.chk
%nprocshared=24
%mem=10gb
#p pbe1pbe/def2tzvp em=gd3bj scrf=(smd,solvent=benzene) out=wfn

irc

0 1
Pt   -0.00002200 -0.47789900  0.01082400
P     2.07754100  0.45517500 -0.01827800
P    -2.07741900  0.45547900 -0.00391100
C     2.56541000  1.44118900  1.43544200
H     2.45005000  0.83441600  2.33593300
H     3.60247800  1.78192100  1.36273600
H     1.90451200  2.30560600  1.52502900
C     3.46195200 -0.73652700 -0.10169500
H     3.35447000 -1.34284700 -1.00359700
H     4.43759700 -0.24076600 -0.11326400
H     3.40575700 -1.40539300  0.75961300
C     2.50669100  1.56504500 -1.39975100
H     1.84525500  2.43361300 -1.38458100
H     3.54720300  1.89854700 -1.34420200
H     2.34935000  1.03909100 -2.34380000
C    -2.50704200  1.61639400  1.33478000
H    -1.84608200  2.48412300  1.28719600
H    -3.54768900  1.94699200  1.26615000
H    -2.35001200  1.12629400  2.29795900
C    -3.46176200 -0.73255800  0.12425800
H    -4.43768900 -0.23733000  0.11326300
H    -3.40320400 -1.43585100 -0.70902200
H    -3.35610200 -1.30166500  1.05030300
C    -2.56526600  1.38558300 -1.49395000
H    -2.45169800  0.74421900 -2.37040200
H    -3.60169600  1.73062900 -1.43370900
H    -1.90282300  2.24462400 -1.61744800
H    -0.50137500 -2.09188600  0.05985200
H     0.50234800 -2.09823600  0.05168300

Pt_irc0012.wfn

