%chk=Pt_irc0034.chk
%nprocshared=24
%mem=10gb
#p pbe1pbe/def2tzvp em=gd3bj scrf=(smd,solvent=benzene) out=wfn

irc

0 1
Pt   -0.00000700 -0.39109800  0.00797400
P     2.13246900  0.37169400 -0.01452300
P    -2.13242300  0.37145700 -0.00103300
C     2.67347900  1.33643500  1.43446100
H     2.52257800  0.74259500  2.33831200
H     3.72873500  1.61586800  1.36057400
H     2.06271000  2.23718100  1.51717700
C     3.45012000 -0.89662400 -0.08821800
H     3.31346900 -1.49973900 -0.98868200
H     4.45311500 -0.45881900 -0.09757200
H     3.35483000 -1.55859400  0.77544600
C     2.62568900  1.44745300 -1.40127400
H     2.01370500  2.35116100 -1.39184500
H     3.68354100  1.72103800 -1.34362200
H     2.44153600  0.92579200 -2.34281600
C    -2.62572900  1.49990100  1.34322300
H    -2.01351000  2.40244800  1.29947700
H    -3.68347200  1.77135800  1.27455100
H    -2.44230100  1.01461500  2.30415300
C    -3.45023500 -0.89294900  0.12149100
H    -4.45320500 -0.45508300  0.11302000
H    -3.35446900 -1.58828100 -0.71549200
H    -3.31419600 -1.46030100  1.04499900
C    -2.67351300  1.27933100 -1.48628400
H    -2.52372000  0.65031300 -2.36621600
H    -3.72846900  1.56244700 -1.42279400
H    -2.06189500  2.17549600 -1.60463200
H    -0.43549500 -2.12726200  0.05021800
H     0.43867200 -2.13433300  0.04338000

Pt_irc0034.wfn

