%chk=Pt_irc0044.chk
%nprocshared=24
%mem=10gb
#p pbe1pbe/def2tzvp em=gd3bj scrf=(smd,solvent=benzene) out=wfn

irc

0 1
Pt    0.00004400 -0.34752000  0.00715100
P     2.15344000  0.32030600 -0.01252100
P    -2.15343700  0.31946400 -0.00098300
C     2.69527500  1.28352300  1.43634100
H     2.54400100  0.68916800  2.33979700
H     3.75044400  1.56431700  1.36358200
H     2.08298100  2.18320200  1.51874600
C     3.46254500 -0.95739200 -0.08394600
H     3.32653600 -1.55903200 -0.98558800
H     4.46689100 -0.52308300 -0.09071700
H     3.36383300 -1.61922100  0.77956300
C     2.64675600  1.39026100 -1.40264300
H     2.03377900  2.29321600 -1.39445500
H     3.70475500  1.66474900 -1.34824000
H     2.46044600  0.86570400 -2.34212100
C    -2.64689900  1.44270700  1.34635500
H    -2.03344600  2.34434900  1.30374800
H    -3.70470800  1.71544200  1.28067700
H    -2.46154700  0.95468000  2.30550100
C    -3.46240600 -0.95450000  0.12026900
H    -4.46673100 -0.52023300  0.10949500
H    -3.36341000 -1.64987300 -0.71643300
H    -3.32675900 -1.52005400  1.04502600
C    -2.69549200  1.22515100 -1.48639400
H    -2.54512600  0.59544600 -2.36573800
H    -3.75045300  1.50922000 -1.42413100
H    -2.08271300  2.12048800 -1.60464400
H    -0.41549100 -2.19790900  0.04996200
H     0.41068200 -2.18207200  0.04133900

Pt_irc0044.wfn

