%chk=Pt_irc0050.chk
%nprocshared=24
%mem=10gb
#p pbe1pbe/def2tzvp em=gd3bj scrf=(smd,solvent=benzene) out=wfn

irc

0 1
Pt    0.00007300 -0.32663400  0.00663600
P     2.15952600  0.28676700 -0.01124600
P    -2.15964700  0.28594600 -0.00062000
C     2.68583300  1.26529000  1.43386500
H     2.55118300  0.67206900  2.34056300
H     3.73413100  1.56867000  1.35438100
H     2.05475100  2.15193500  1.51465600
C     3.48447200 -0.97270000 -0.08303300
H     3.35827800 -1.57470700 -0.98585500
H     4.48287500 -0.52490200 -0.08810700
H     3.39485500 -1.63718100  0.77948300
C     2.63405000  1.36980700 -1.39864100
H     2.00247200  2.25970400 -1.38914200
H     3.68558600  1.66634400 -1.33754000
H     2.46276000  0.84528400 -2.34083300
C    -2.63501800  1.42248600  1.34303700
H    -2.00385400  2.31162600  1.29874700
H    -3.68666500  1.71591200  1.27001800
H    -2.46379100  0.93548900  2.30517400
C    -3.48402000 -0.97035500  0.12036100
H    -4.48264400 -0.52320700  0.10751000
H    -3.39382500 -1.66826200 -0.71527700
H    -3.35777400 -1.53625600  1.04623700
C    -2.68606100  1.20666200 -1.48316800
H    -2.55063000  0.57843600 -2.36585200
H    -3.73459200  1.51222700 -1.41606200
H    -2.05550800  2.08986800 -1.59841800
H    -0.39104000 -2.40057400  0.05797200
H     0.39188700 -2.40091100  0.04786000

Pt_irc0050.wfn

