%chk=Pt_irc0087.chk
%nprocshared=24
%mem=10gb
#p pbe1pbe/def2tzvp em=gd3bj scrf=(smd,solvent=benzene) out=wfn

irc

0 1
Pt   -0.00452400 -0.23465600  0.00489600
P     2.19761400  0.18480800 -0.00782400
P    -2.20512800  0.19034000  0.00075700
C     2.74383500  1.15460700  1.43583200
H     2.60137400  0.56479600  2.34340900
H     3.79609900  1.44231800  1.35300200
H     2.12787100  2.05203100  1.51685600
C     3.46438400 -1.12451700 -0.08142200
H     3.31387400 -1.72310300 -0.98228800
H     4.47543900 -0.70726600 -0.09094300
H     3.35562100 -1.78293700  0.78294600
C     2.68902500  1.26007000 -1.39573300
H     2.07204100  2.16036000 -1.38570100
H     3.74433500  1.54175700 -1.33299000
H     2.50995200  0.73901800 -2.33823100
C    -2.68197900  1.32696700  1.34443800
H    -2.05099900  2.21643100  1.30044300
H    -3.73274000  1.62212000  1.26788600
H    -2.51308700  0.84080700  2.30724100
C    -3.49610800 -1.09208400  0.12474400
H    -4.49917700 -0.65601400  0.11030400
H    -3.39534200 -1.79002300 -0.70908400
H    -3.36118400 -1.65280400  1.05205900
C    -2.73667600  1.11113800 -1.48028600
H    -2.60480200  0.48388600 -2.36406100
H    -3.78414800  1.41871400 -1.40831800
H    -2.10634900  1.99453200 -1.59674700
H     0.57506600 -2.78122400  0.03049000
H     0.79077800 -3.50693300  0.03812000

Pt_irc0087.wfn

