%chk=Pt_irc0075.chk
%nprocshared=24
%mem=10gb
#p pbe1pbe/def2tzvp em=gd3bj scrf=(smd,solvent=benzene) out=wfn

irc

0 1
Pt   -0.00362500 -0.27096200  0.00548600
P     2.18386300  0.21455500 -0.00888300
P    -2.18710700  0.21824200  0.00054700
C     2.68702500  1.21013000  1.43359700
H     2.57514900  0.61508700  2.34208800
H     3.72489500  1.54538100  1.34734500
H     2.03080800  2.07819400  1.51577900
C     3.51364400 -1.03163900 -0.08289300
H     3.39472400 -1.63217400 -0.98738200
H     4.50482800 -0.56920300 -0.08502900
H     3.43012700 -1.70016900  0.77677300
C     2.62823400  1.31306000 -1.39520200
H     1.97336200  2.18594000 -1.38421000
H     3.67055200  1.63930000 -1.33026600
H     2.47364600  0.78662000 -2.33905600
C    -2.62486800  1.37322900  1.34242500
H    -1.96218900  2.23921100  1.29951100
H    -3.66406000  1.70597700  1.26175500
H    -2.47760700  0.88245000  2.30642400
C    -3.52793100 -1.01269900  0.12245300
H    -4.51437000 -0.54023100  0.10609300
H    -3.45172400 -1.71458900 -0.71077900
H    -3.41576800 -1.57813100  1.05002900
C    -2.68284700  1.16014300 -1.48014900
H    -2.57591800  0.52928300 -2.36472900
H    -3.71803100  1.50674700 -1.40702400
H    -2.01993800  2.01925000 -1.59608300
H     0.34533700 -3.01677500  0.04920200
H     0.55751000 -3.73157700  0.05618700

Pt_irc0075.wfn

