%chk=Pt_irc0065.chk
%nprocshared=24
%mem=10gb
#p pbe1pbe/def2tzvp em=gd3bj scrf=(smd,solvent=benzene) out=wfn

irc

0 1
Pt   -0.00172400 -0.29114400  0.00579900
P     2.17578300  0.23938600 -0.00955300
P    -2.17288200  0.23765300  0.00046800
C     2.67908400  1.23779200  1.43148000
H     2.56471100  0.64624100  2.34186900
H     3.71785500  1.57014500  1.34469500
H     2.02523300  2.10812300  1.51028600
C     3.51254000 -1.00026000 -0.08309000
H     3.39402800 -1.60235800 -0.98662400
H     4.50338500 -0.53655500 -0.08723900
H     3.43168500 -1.66736500  0.77797200
C     2.62166200  1.34002700 -1.39432400
H     1.96813700  2.21405000 -1.38224200
H     3.66433800  1.66460000 -1.32698200
H     2.46742200  0.81612900 -2.33960300
C    -2.61972900  1.39230600  1.34038200
H    -1.96541000  2.26463500  1.29535600
H    -3.66202700  1.71453200  1.25757900
H    -2.46846900  0.90581500  2.30590600
C    -3.51337400 -0.99503100  0.12191800
H    -4.50301900 -0.52888700  0.10748000
H    -3.43467800 -1.69570800 -0.71227200
H    -3.39737100 -1.56156100  1.04850500
C    -2.67548900  1.17917500 -1.47877700
H    -2.56250100  0.55223400 -2.36533900
H    -3.71395000  1.51539000 -1.40403500
H    -2.02103500  2.04521900 -1.59204300
H    -0.20489600 -2.92423600  0.05394800
H     0.38499600 -3.39344900  0.05323000

Pt_irc0065.wfn

