%chk=Pt_irc0007.chk
%nprocshared=24
%mem=10gb
#p pbe1pbe/def2tzvp em=gd3bj scrf=(smd,solvent=benzene) out=wfn

irc

0 1
Pt    0.00001400 -0.49713400  0.01167600
P     2.06693800  0.47534300 -0.01954000
P    -2.06690800  0.47564300 -0.00513700
C     2.54322200  1.46242600  1.43652800
H     2.43269400  0.85431400  2.33648100
H     3.57391000  1.82178100  1.36733400
H     1.86853200  2.31711600  1.52611900
C     3.45641200 -0.70714600 -0.10498100
H     3.35338400 -1.31132300 -1.00817400
H     4.42280600 -0.19366500 -0.11898900
H     3.40948400 -1.37372600  0.75770200
C     2.48387200  1.59035600 -1.39991400
H     1.81004100  2.45037500 -1.38026400
H     3.51846200  1.94154400 -1.34800600
H     2.32777800  1.06732400 -2.34560100
C    -2.48406600  1.64067700  1.33323900
H    -1.81056300  2.49964700  1.28261200
H    -3.51873400  1.98913600  1.26710500
H    -2.32900800  1.15253500  2.29752900
C    -3.45606800 -0.70332000  0.12419400
H    -4.42293900 -0.19068900  0.11295200
H    -3.40534500 -1.40507800 -0.70995500
H    -3.35577300 -1.26943500  1.05197200
C    -2.54361700  1.40787900 -1.49670800
H    -2.43387900  0.76632000 -2.37327100
H    -3.57394800  1.77061600 -1.44103000
H    -1.86803600  2.25787000 -1.61870100
H    -0.57791400 -2.02725600  0.06692600
H     0.57840400 -2.02662200  0.05866000

Pt_irc0007.wfn

