%chk=Pt_irc0081.chk
%nprocshared=24
%mem=10gb
#p pbe1pbe/def2tzvp em=gd3bj scrf=(smd,solvent=benzene) out=wfn

irc

0 1
Pt   -0.00420000 -0.25482800  0.00519100
P     2.18945300  0.19914700 -0.00840300
P    -2.19643100  0.20487100  0.00062900
C     2.70983200  1.18373200  1.43507800
H     2.58555300  0.59021900  2.34290700
H     3.75338000  1.50128100  1.35083500
H     2.06867900  2.06320000  1.51689900
C     3.49182400 -1.07502100 -0.08237900
H     3.36037900 -1.67378700 -0.98617300
H     4.49164900 -0.63138000 -0.08638200
H     3.39689400 -1.73990700  0.77875000
C     2.65250100  1.28825900 -1.39558700
H     2.01187800  2.17183000 -1.38448300
H     3.69995400  1.59786400 -1.33243700
H     2.48746100  0.76388500 -2.33879000
C    -2.64748100  1.35297900  1.34366600
H    -1.99532000  2.22699500  1.30017600
H    -3.69072000  1.67328300  1.26553600
H    -2.49176000  0.86335400  2.30691900
C    -3.51968400 -1.04469300  0.12337100
H    -4.51158500 -0.58382000  0.10813500
H    -3.43581900 -1.74496800 -0.71038400
H    -3.39973000 -1.60866800  1.05078900
C    -2.70446900  1.13884500 -1.48060400
H    -2.58800800  0.50885600 -2.36458400
H    -3.74399200  1.47231500 -1.40890900
H    -2.05240000  2.00631800 -1.59654100
H     0.53695600 -2.85806700  0.04347000
H     0.75165500 -3.58306400  0.05110100

Pt_irc0081.wfn

