%chk=Pt_irc0097.chk
%nprocshared=24
%mem=10gb
#p pbe1pbe/def2tzvp em=gd3bj scrf=(smd,solvent=benzene) out=wfn

irc

0 1
Pt   -0.00407000 -0.19972400  0.00434500
P     2.21068700  0.16129100 -0.00733300
P    -2.21697800  0.16647000  0.00141200
C     2.79689600  1.10773800  1.43589700
H     2.62799300  0.52510200  2.34357300
H     3.86071000  1.34939600  1.35395600
H     2.22054000  2.03119800  1.51589000
C     3.41791600 -1.20286200 -0.07831600
H     3.24190300 -1.79523700 -0.97859200
H     4.44616200 -0.83009200 -0.08752300
H     3.27976400 -1.85462100  0.78681800
C     2.74872500  1.21195900 -1.39633200
H     2.17102200  2.13797400 -1.38889900
H     3.81505300  1.44814300 -1.33307000
H     2.54829900  0.69696700 -2.33786200
C    -2.74195800  1.27980900  1.34621100
H    -2.15224000  2.19715100  1.30150800
H    -3.80517400  1.52686100  1.27194500
H    -2.54900500  0.80130400  2.30832800
C    -3.44582600 -1.17486400  0.12632000
H    -4.46824700 -0.78641200  0.11310800
H    -3.31286200 -1.86681700 -0.70794500
H    -3.28324600 -1.72900000  1.05313300
C    -2.79064400  1.06263300 -1.47875000
H    -2.63074300  0.44207100 -2.36262300
H    -3.85096500  1.32214800 -1.40608000
H    -2.20140300  1.97395200 -1.59547300
H     0.50242000 -2.74727900  0.01181400
H     0.69808500 -3.47924200  0.01488900

Pt_irc0097.wfn

