%chk=Pt_irc0078.chk
%nprocshared=24
%mem=10gb
#p pbe1pbe/def2tzvp em=gd3bj scrf=(smd,solvent=benzene) out=wfn

irc

0 1
Pt   -0.00394500 -0.26375300  0.00534900
P     2.18617400  0.20658500 -0.00866600
P    -2.19168200  0.21201600  0.00057200
C     2.69589200  1.19781200  1.43434100
H     2.57852200  0.60373900  2.34273200
H     3.73597700  1.52639900  1.34933900
H     2.04543400  2.07043200  1.51571400
C     3.50456200 -1.05113700 -0.08272500
H     3.38172200 -1.65010800 -0.98760700
H     4.49901300 -0.59554800 -0.08468700
H     3.41627800 -1.71867300  0.77709900
C     2.63757300  1.30151200 -1.39536400
H     1.98808400  2.17854200 -1.38358900
H     3.68185000  1.62162300 -1.33175400
H     2.47814400  0.77627600 -2.33905300
C    -2.63377100  1.36438000  1.34309700
H    -1.97484900  2.23329000  1.29938700
H    -3.67446000  1.69274400  1.26419600
H    -2.48247800  0.87411200  2.30673300
C    -3.52618600 -1.02561700  0.12277700
H    -4.51429900 -0.55669100  0.10693800
H    -3.44766400 -1.72680100 -0.71075800
H    -3.41140200 -1.59052800  1.05030100
C    -2.69152100  1.15098500 -1.48043000
H    -2.58037400  0.52057700 -2.36480600
H    -3.72829100  1.49293900 -1.40849200
H    -2.03237700  2.01315500 -1.59583100
H     0.46273500 -2.93049600  0.04227900
H     0.67103000 -3.65819900  0.06001300

Pt_irc0078.wfn

