%chk=Pt_irc0085.chk
%nprocshared=24
%mem=10gb
#p pbe1pbe/def2tzvp em=gd3bj scrf=(smd,solvent=benzene) out=wfn

irc

0 1
Pt   -0.00449400 -0.24155000  0.00499200
P     2.19482900  0.18956400 -0.00799100
P    -2.20239500  0.19517300  0.00070000
C     2.73242300  1.16422500  1.43570200
H     2.59589000  0.57300600  2.34327600
H     3.78190300  1.46188500  1.35254500
H     2.10801200  2.05575300  1.51703800
C     3.47358900 -1.10813200 -0.08180000
H     3.32917300 -1.70714200 -0.98340600
H     4.48093000 -0.68193600 -0.09001300
H     3.36985900 -1.76845300  0.78176100
C     2.67668700  1.26952300 -1.39570200
H     2.05170200  2.16426800 -1.38531000
H     3.72945000  1.56061900 -1.33292700
H     2.50224000  0.74725700 -2.33839300
C    -2.67004700  1.33591000  1.34420000
H    -2.03140800  2.21988700  1.30043800
H    -3.71818500  1.64011900  1.26713700
H    -2.50584700  0.84839200  2.30712500
C    -3.50499000 -1.07563200  0.12429200
H    -4.50410300 -0.63057500  0.10963700
H    -3.41036400 -1.77443300 -0.70954000
H    -3.37540200 -1.63758000  1.05163000
C    -2.72560400  1.12062200 -1.48047200
H    -2.59917300  0.49227200 -2.36426000
H    -3.77032700  1.43744800 -1.40867300
H    -2.08747700  1.99839700 -1.59680400
H     0.57629400 -2.79794800  0.03443500
H     0.79238800 -3.52329900  0.04310200

Pt_irc0085.wfn

