%chk=Pt_irc0061.chk
%nprocshared=24
%mem=10gb
#p pbe1pbe/def2tzvp em=gd3bj scrf=(smd,solvent=benzene) out=wfn

irc

0 1
Pt   -0.00090900 -0.29740300  0.00592400
P     2.17180200  0.24677800 -0.00975300
P    -2.16976000  0.24515700  0.00041800
C     2.67914400  1.24295300  1.43141100
H     2.56048900  0.65222300  2.34180900
H     3.71988000  1.56940600  1.34576500
H     2.02977000  2.11666000  1.50920600
C     3.50794600 -0.99512100 -0.08302800
H     3.38874500 -1.59729000 -0.98652800
H     4.50014900 -0.53414600 -0.08732700
H     3.42637200 -1.66196900  0.77828200
C     2.62249300  1.34531200 -1.39459800
H     1.97327300  2.22246700 -1.38176000
H     3.66697800  1.66423100 -1.32831000
H     2.46456700  0.82223400 -2.33975100
C    -2.62186900  1.39741300  1.34047000
H    -1.97228900  2.27316700  1.29444200
H    -3.66615300  1.71352400  1.25933800
H    -2.46627700  0.91173800  2.30575000
C    -3.50769900 -0.99152100  0.12176600
H    -4.49926300 -0.52927500  0.10694700
H    -3.42689600 -1.69214000 -0.71237700
H    -3.39061800 -1.55751400  1.04862700
C    -2.67673200  1.18380100 -1.47907200
H    -2.55895200  0.55739700 -2.36542100
H    -3.71729800  1.51370300 -1.40562000
H    -2.02704400  2.05346000 -1.59165800
H    -0.31285100 -2.86942300  0.05329800
H     0.38148300 -3.11185700  0.04688200

Pt_irc0061.wfn

