%chk=Pt_irc0046.chk
%nprocshared=24
%mem=10gb
#p pbe1pbe/def2tzvp em=gd3bj scrf=(smd,solvent=benzene) out=wfn

irc

0 1
Pt    0.00008900 -0.34027700  0.00697700
P     2.15576900  0.30890400 -0.01216400
P    -2.15601000  0.30820400 -0.00097000
C     2.69246000  1.27613300  1.43584800
H     2.54741000  0.68104100  2.33981900
H     3.74506900  1.56562600  1.36110700
H     2.07260700  2.17049600  1.51849700
C     3.47017500 -0.96335000 -0.08361600
H     3.33825600 -1.56526400 -0.98570000
H     4.47234600 -0.52400700 -0.08969400
H     3.37512900 -1.62621500  0.77955600
C     2.64288600  1.38223600 -1.40170200
H     2.02239200  2.27993500 -1.39354400
H     3.69850900  1.66515100 -1.34572500
H     2.46168700  0.85661800 -2.34156300
C    -2.64321400  1.43470100  1.34578400
H    -2.02225400  2.33109500  1.30349900
H    -3.69864300  1.71578800  1.27822900
H    -2.46299800  0.94552600  2.30530300
C    -3.46998900 -0.96063300  0.12028100
H    -4.47229700 -0.52171700  0.10866600
H    -3.37445600 -1.65709000 -0.71596500
H    -3.33812300 -1.52631100  1.04553200
C    -2.69292900  1.21784200 -1.48571000
H    -2.54838100  0.58738500 -2.36547700
H    -3.74539600  1.51050900 -1.42217400
H    -2.07267800  2.10793400 -1.60382600
H    -0.40704400 -2.23572100  0.05453400
H     0.40627500 -2.22713100  0.04577900

Pt_irc0046.wfn

