%chk=Pt_irc0070.chk
%nprocshared=24
%mem=10gb
#p pbe1pbe/def2tzvp em=gd3bj scrf=(smd,solvent=benzene) out=wfn

irc

0 1
Pt   -0.00266800 -0.28252000  0.00565500
P     2.18006200  0.22866300 -0.00926300
P    -2.17893800  0.22840900  0.00050900
C     2.67982300  1.22860900  1.43186500
H     2.57081700  0.63550800  2.34189900
H     3.71623200  1.56774900  1.34361600
H     2.02060600  2.09471100  1.51253600
C     3.51671000 -1.01000600 -0.08310900
H     3.39950800 -1.61159600 -0.98708700
H     4.50631600 -0.54385900 -0.08640900
H     3.43648200 -1.67798100  0.77725900
C     2.62145900  1.33084000 -1.39420000
H     1.96291600  2.20111000 -1.38321300
H     3.66207400  1.66164300 -1.32587800
H     2.47132600  0.80559500 -2.33938000
C    -2.61836200  1.38522300  1.34075100
H    -1.95667800  2.25206500  1.29718100
H    -3.65770700  1.71653500  1.25716200
H    -2.47222300  0.89667900  2.30601000
C    -3.52173800 -1.00034900  0.12220100
H    -4.50883700 -0.52902100  0.10742300
H    -3.44607400 -1.70154500 -0.71172300
H    -3.40831700 -1.56685600  1.04902900
C    -2.67537000  1.17249400 -1.47893800
H    -2.56831400  0.54390900 -2.36505900
H    -3.71077900  1.51780000 -1.40387000
H    -2.01361600  2.03282300 -1.59336300
H     0.04395900 -3.00361000  0.05058800
H     0.40390100 -3.67751500  0.05977100

Pt_irc0070.wfn

