%chk=Pt_irc0024.chk
%nprocshared=24
%mem=10gb
#p pbe1pbe/def2tzvp em=gd3bj scrf=(smd,solvent=benzene) out=wfn

irc

0 1
Pt    0.00000500 -0.43055400  0.00909400
P     2.10812600  0.40871400 -0.01621000
P    -2.10817500  0.40889200 -0.00199100
C     2.62507200  1.38465200  1.43434800
H     2.48996800  0.78550600  2.33722600
H     3.67288300  1.69087800  1.36063400
H     1.99200100  2.26983700  1.51925900
C     3.45909500 -0.82323200 -0.09421600
H     3.33629300 -1.42852500 -0.99514300
H     4.45009600 -0.35887300 -0.10448100
H     3.38192200 -1.48899200  0.76825500
C     2.57238100  1.50126700 -1.40022700
H     1.93744600  2.38916500 -1.38819300
H     3.62281600  1.80208000 -1.34264700
H     2.40141700  0.97759800 -2.34318100
C    -2.57169900  1.55368000  1.33934400
H    -1.93672600  2.44042900  1.29329400
H    -3.62211400  1.85215300  1.27047800
H    -2.40071200  1.06628000  2.30153200
C    -3.45937800 -0.81888900  0.12360900
H    -4.45034500 -0.35443500  0.11455200
H    -3.38155400 -1.51840200 -0.71165600
H    -3.33736700 -1.38787100  1.04800500
C    -2.62541500  1.32817300 -1.48891100
H    -2.49276900  0.69359600 -2.36764300
H    -3.67251300  1.63917300 -1.42594900
H    -1.99060700  2.20792400 -1.60951300
H    -0.45646500 -2.11844600  0.05512900
H     0.45622900 -2.11915500  0.04482400

Pt_irc0024.wfn

