%chk=Pt_irc0035.chk
%nprocshared=24
%mem=10gb
#p pbe1pbe/def2tzvp em=gd3bj scrf=(smd,solvent=benzene) out=wfn

irc

0 1
Pt    0.00007600 -0.38698000  0.00787300
P     2.13460800  0.36762300 -0.01432200
P    -2.13484900  0.36740800 -0.00097200
C     2.67777100  1.33136200  1.43458700
H     2.52547800  0.73801000  2.33850400
H     3.73368900  1.60837100  1.36070800
H     2.06918000  2.23361300  1.51725700
C     3.44931300 -0.90373200 -0.08766100
H     3.31134800 -1.50652500 -0.98814200
H     4.45329300 -0.46824200 -0.09689200
H     3.35228500 -1.56531000  0.77610500
C     2.63026500  1.44186500 -1.40144800
H     2.02052300  2.34711800 -1.39233600
H     3.68878700  1.71298500 -1.34393900
H     2.44484300  0.92040800 -2.34283700
C    -2.63050600  1.49439900  1.34364900
H    -2.02045200  2.39844200  1.30013100
H    -3.68889300  1.76350500  1.27528100
H    -2.44578000  1.00931300  2.30441800
C    -3.44945400 -0.90017300  0.12130400
H    -4.45346600 -0.46474100  0.11282400
H    -3.35183500 -1.59505900 -0.71583300
H    -3.31198100 -1.46720200  1.04480100
C    -2.67782700  1.27420200 -1.48620800
H    -2.52641500  0.64562800 -2.36616200
H    -3.73345800  1.55490600 -1.42289400
H    -2.06836500  2.17187100 -1.60447700
H    -0.43548700 -2.13811600  0.05034000
H     0.43465800 -2.13395900  0.04241900

Pt_irc0035.wfn

