%chk=Pt_irc0083.chk
%nprocshared=24
%mem=10gb
#p pbe1pbe/def2tzvp em=gd3bj scrf=(smd,solvent=benzene) out=wfn

irc

0 1
Pt   -0.00438600 -0.24831500  0.00509000
P     2.19207200  0.19433700 -0.00818800
P    -2.19949000  0.20002800  0.00066100
C     2.72093300  1.17396200  1.43546300
H     2.59059500  0.58143700  2.34309500
H     3.76744900  1.48177400  1.35182800
H     2.08795500  2.05937900  1.51712600
C     3.48279900 -1.09153900 -0.08211100
H     3.34484400 -1.69056700 -0.98474100
H     4.48636400 -0.65646900 -0.08841000
H     3.38367200 -1.75406900  0.78032900
C     2.66436300  1.27893800 -1.39567400
H     2.03137400  2.16802200 -1.38495300
H     3.71446500  1.57948800 -1.33276700
H     2.49467000  0.75551500 -2.33858800
C    -2.65841500  1.34461800  1.34395900
H    -2.01258800  2.22334600  1.30040400
H    -3.70399200  1.65736700  1.26636200
H    -2.49869600  0.85589800  2.30702300
C    -3.51299500 -1.05965900  0.12382700
H    -4.50831100 -0.60618600  0.10890800
H    -3.42410700 -1.75923700 -0.70998800
H    -3.38848600 -1.62271200  1.05119500
C    -2.71473900  1.12990900 -1.48058700
H    -2.59354500  0.50060700 -2.36442700
H    -3.75675600  1.45553300 -1.40888800
H    -2.06923000  2.00226800 -1.59677000
H     0.56496700 -2.82287000  0.03855000
H     0.78069800 -3.54801400  0.04771800

Pt_irc0083.wfn

