%chk=Pt_irc0009.chk
%nprocshared=24
%mem=10gb
#p pbe1pbe/def2tzvp em=gd3bj scrf=(smd,solvent=benzene) out=wfn

irc

0 1
Pt    0.00002600 -0.48992500  0.01136200
P     2.07034500  0.46819100 -0.01905200
P    -2.07034600  0.46847000 -0.00466800
C     2.55187000  1.45471000  1.43603600
H     2.43978000  0.84625300  2.33574800
H     3.58616700  1.80377600  1.36476400
H     1.88454300  2.31432100  1.52640400
C     3.45894500 -0.71750600 -0.10360700
H     3.35400300 -1.32357700 -1.00577400
H     4.43056500 -0.21400000 -0.11612600
H     3.40734500 -1.38600700  0.75799300
C     2.49261900  1.58084300 -1.39997100
H     1.82535600  2.44517800 -1.38338400
H     3.53060600  1.92209800 -1.34584400
H     2.33695600  1.05512600 -2.34439500
C    -2.49298000  1.63164100  1.33387900
H    -1.82614800  2.49509800  1.28561700
H    -3.53108300  1.97006600  1.26618200
H    -2.33794700  1.14131200  2.29722400
C    -3.45867700 -0.71362700  0.12412600
H    -4.43067600 -0.21080500  0.11293500
H    -3.40407000 -1.41691200 -0.70915600
H    -3.35590900 -1.28207000  1.05069800
C    -2.55198300  1.39965400 -1.49563800
H    -2.44121300  0.75715300 -2.37156400
H    -3.58578500  1.75254700 -1.43724700
H    -1.88341800  2.25417600 -1.61918000
H    -0.53434900 -2.06603000  0.06349800
H     0.53276700 -2.06463400  0.05495100

Pt_irc0009.wfn

