%chk=Pt_irc0004.chk
%nprocshared=24
%mem=10gb
#p pbe1pbe/def2tzvp em=gd3bj scrf=(smd,solvent=benzene) out=wfn

irc

0 1
Pt    0.00001000 -0.50393000  0.01194600
P     2.06500200  0.48132900 -0.01997400
P    -2.06497400  0.48165100 -0.00555900
C     2.53472400  1.46866800  1.43719100
H     2.42613000  0.86192700  2.33799200
H     3.55880600  1.84529600  1.37130300
H     1.84758700  2.31498700  1.52479400
C     3.45345300 -0.69898800 -0.10643600
H     3.35373700 -1.29969600 -1.01148100
H     4.41034300 -0.16834100 -0.12312600
H     3.41474100 -1.36189000  0.75820200
C     2.47544500  1.59863600 -1.39969700
H     1.79066700  2.45141900 -1.37426600
H     3.50381700  1.96657700 -1.35162400
H     2.31751600  1.08075100 -2.34760500
C    -2.47537300  1.64838800  1.33262900
H    -1.79065900  2.49973900  1.27733400
H    -3.50375100  2.01377500  1.26908400
H    -2.31924900  1.16463200  2.29864800
C    -3.45303600 -0.69520200  0.12438400
H    -4.41054700 -0.16554500  0.11309500
H    -3.40917600 -1.39393100 -0.71146000
H    -3.35718600 -1.25714200  1.05428100
C    -2.53547700  1.41477400 -1.49774000
H    -2.42669300  0.77556600 -2.37581400
H    -3.55945100  1.79414700 -1.44657800
H    -1.84803200  2.25712400 -1.61643700
H    -0.71351200 -1.94289800  0.07078800
H     0.71526100 -1.94016500  0.06240300

Pt_irc0004.wfn

