%chk=Pt_irc0027.chk
%nprocshared=24
%mem=10gb
#p pbe1pbe/def2tzvp em=gd3bj scrf=(smd,solvent=benzene) out=wfn

irc

0 1
Pt    0.00001200 -0.41866100  0.00873500
P     2.11567200  0.39744500 -0.01581700
P    -2.11574700  0.39753300 -0.00158600
C     2.63991600  1.37025900  1.43424700
H     2.50000000  0.77291700  2.33756700
H     3.69006700  1.66832300  1.36036200
H     2.01366300  2.26032300  1.51833300
C     3.45675700 -0.84548300 -0.09235600
H     3.32974500 -1.45012700 -0.99314700
H     4.45148200 -0.38914500 -0.10229600
H     3.37398200 -1.51009300  0.77050400
C     2.58909200  1.48524300 -1.40045500
H     1.96107700  2.37802100 -1.38918800
H     3.64182500  1.77786600 -1.34257000
H     2.41431300  0.96237400 -2.34313500
C    -2.58843100  1.53766500  1.34050900
H    -1.96021800  2.42922200  1.29513400
H    -3.64109100  1.82812800  1.27155500
H    -2.41381000  1.05101800  2.30240800
C    -3.45706700 -0.84126500  0.12301200
H    -4.45173400 -0.38478300  0.11419200
H    -3.37381200 -1.53948000 -0.71283800
H    -3.33073400 -1.40979900  1.04711500
C    -2.64031200  1.31366400 -1.48792100
H    -2.50256500  0.68094400 -2.36718500
H    -3.68985300  1.61625900 -1.42458600
H    -2.01253500  2.19851300 -1.60774800
H    -0.44939700 -2.12421800  0.04859800
H     0.45012500 -2.12454200  0.04976800

Pt_irc0027.wfn

