%chk=Pt_irc0088.chk
%nprocshared=24
%mem=10gb
#p pbe1pbe/def2tzvp em=gd3bj scrf=(smd,solvent=benzene) out=wfn

irc

0 1
Pt   -0.00451500 -0.23118400  0.00484700
P     2.19899600  0.18243700 -0.00774700
P    -2.20643500  0.18793600  0.00079600
C     2.74944900  1.14984900  1.43587000
H     2.60414300  0.56074400  2.34345500
H     3.80302900  1.43271500  1.35316600
H     2.13761200  2.05010500  1.51676100
C     3.45979400 -1.13260400 -0.08121200
H     3.30642300 -1.73079800 -0.98184500
H     4.47267400 -0.71982200 -0.09110700
H     3.34834200 -1.79022000  0.78341300
C     2.69514200  1.25532900 -1.39576000
H     2.08214000  2.15833900 -1.38592400
H     3.75168000  1.53235100 -1.33300900
H     2.51380900  0.73489000 -2.33816500
C    -2.68798900  1.32242900  1.34456700
H    -2.06095300  2.21467800  1.30046000
H    -3.74006100  1.61293400  1.26826300
H    -2.51671100  0.83698400  2.30731100
C    -3.49144000 -1.10038400  0.12496000
H    -4.49650300 -0.66893200  0.11062400
H    -3.38752200 -1.79785000 -0.70887300
H    -3.35379600 -1.66046800  1.05225600
C    -2.74221800  1.10635300 -1.48017300
H    -2.60758900  0.47968500 -2.36394700
H    -3.79105600  1.40921100 -1.40810500
H    -2.11588500  1.99258100 -1.59669700
H     0.57145200 -2.77517300  0.02819900
H     0.78642300 -3.50121200  0.03587800

Pt_irc0088.wfn

