%chk=Pt_irc0076.chk
%nprocshared=24
%mem=10gb
#p pbe1pbe/def2tzvp em=gd3bj scrf=(smd,solvent=benzene) out=wfn

irc

0 1
Pt   -0.00382300 -0.26885200  0.00544500
P     2.18456500  0.21197200 -0.00880200
P    -2.18849600  0.21642100  0.00056700
C     2.68936300  1.20633900  1.43385600
H     2.57524200  0.61179800  2.34237700
H     3.72800700  1.53938000  1.34839500
H     2.03494500  2.07591000  1.51525000
C     3.51141800 -1.03713900 -0.08283700
H     3.39180300 -1.63732900 -0.98742000
H     4.50327500 -0.57606300 -0.08502400
H     3.42724100 -1.70537400  0.77694900
C     2.63065700  1.30946500 -1.39531300
H     1.97760300  2.18376400 -1.38348300
H     3.67369400  1.63355900 -1.33125400
H     2.47392200  0.78361400 -2.33913000
C    -2.62718900  1.37080600  1.34260700
H    -1.96552300  2.23759600  1.29908200
H    -3.66681700  1.70228200  1.26265700
H    -2.47847300  0.88032500  2.30652500
C    -3.52795800 -1.01598400  0.12252400
H    -4.51472300 -0.54421800  0.10611700
H    -3.45127700 -1.71785500 -0.71066000
H    -3.41543700 -1.58122500  1.05016100
C    -2.68512900  1.15761500 -1.48024700
H    -2.57684600  0.52698100 -2.36481300
H    -3.72074200  1.50292900 -1.40759000
H    -2.02318100  2.01757400 -1.59577000
H     0.39717800 -2.98476700  0.05280600
H     0.59565300 -3.71963100  0.05202700

Pt_irc0076.wfn

