%chk=Pt_irc0058.chk
%nprocshared=24
%mem=10gb
#p pbe1pbe/def2tzvp em=gd3bj scrf=(smd,solvent=benzene) out=wfn

irc

0 1
Pt   -0.00029200 -0.30401300  0.00607400
P     2.16815400  0.25462000 -0.00997000
P    -2.16718300  0.25330300  0.00033800
C     2.67933000  1.24836300  1.43144500
H     2.55748300  0.65826400  2.34181600
H     3.72170200  1.56994700  1.34646900
H     2.03401900  2.12512700  1.50905100
C     3.50308400 -0.98964700 -0.08298700
H     3.38305500 -1.59133300 -0.98671000
H     4.49634300 -0.53078100 -0.08710100
H     3.42001800 -1.65602000  0.77855800
C     2.62344900  1.35090800 -1.39498700
H     1.97821700  2.23103300 -1.38218000
H     3.66949500  1.66507200 -1.32931100
H     2.46285000  0.82858600 -2.34010400
C    -2.62400500  1.40331200  1.34065000
H    -1.97848200  2.28207600  1.29442600
H    -3.66987500  1.71474500  1.26075100
H    -2.46539500  0.91833100  2.30578600
C    -3.50301500 -0.98665000  0.12161600
H    -4.49612700 -0.52769100  0.10667300
H    -3.41959500 -1.68685100 -0.71264900
H    -3.38413300 -1.55203200  1.04864800
C    -2.67800200  1.18914200 -1.47957800
H    -2.55669700  0.56306400 -2.36567400
H    -3.72024200  1.51416800 -1.40714700
H    -2.03240100  2.06185900 -1.59223100
H    -0.36743100 -2.78388600  0.05090000
H     0.38376600 -2.88780900  0.04125600

Pt_irc0058.wfn

