%chk=Pd_tsb.chk
%nprocshared=24
#p opt=(calcfc,ts,noeigen) scrf=(smd,solvent=benzene) def2tzvp em=gd3bj
pbe1pbe

Title Card Required

0 1
 Pt                -0.00000900   -0.37852300   -0.00002800
 P                  2.16047200    0.22739800   -0.00041200
 P                 -2.16044800    0.22739700    0.00039700
 C                  2.68165200    1.17855600    1.46494100
 H                  2.54677800    0.56751400    2.35966200
 H                  3.72937500    1.48574800    1.39304100
 H                  2.04863800    2.06221100    1.56191200
 C                  3.48713200   -1.02813900   -0.09497700
 H                  3.36371500   -1.61158300   -1.01027100
 H                  4.48496800   -0.57911400   -0.08852100
 H                  3.39634700   -1.71031200    0.75347700
 C                  2.63570600    1.34042700   -1.36395600
 H                  2.00244400    2.22879400   -1.33744300
 H                  3.68640200    1.63777200   -1.29336600
 H                  2.46824200    0.83562300   -2.31750500
 C                 -2.63614200    1.33858100    1.36529200
 H                 -2.00285200    2.22697200    1.34021000
 H                 -3.68680500    1.63604900    1.29474200
 H                 -2.46902100    0.83247900    2.31821400
 C                 -3.48716100   -1.02825900    0.09278000
 H                 -4.48499300   -0.57922100    0.08657500
 H                 -3.39607800   -1.70928800   -0.75656200
 H                 -3.36406800   -1.61294100    1.00732700
 C                 -2.68113500    1.18056500   -1.46381900
 H                 -2.54575700    0.57084900   -2.35936600
 H                 -3.72894300    1.48747600   -1.39193800
 H                 -2.04822600    2.06446600   -1.55922500
 H                 -0.38871700   -2.51018300    0.00417400
 H                  0.38855600   -2.51080700   -0.00425900

