%chk=Pt_ircb2.chk
%nprocshared=24
#p irc=(calcfc,lqa,maxpoint=30,stepsize=15) genecp scrf=(smd,solvent=benzene) m062x

Title Card Required

0 1
 Pt                 0.00069400   -0.70629800   -0.00262400
 P                  1.97586700    0.39474700    0.00310900
 P                 -1.97103000    0.40007700   -0.00802700
 C                  2.15783500    1.65926800    1.32829700
 H                  2.09853200    1.17196100    2.30629600
 H                  3.11116100    2.19427000    1.25052200
 H                  1.33355300    2.37562700    1.25705300
 C                  3.59943200   -0.46847200    0.14823700
 H                  3.70100700   -1.18151900   -0.67585300
 H                  4.44318500    0.23104900    0.12641200
 H                  3.62417300   -1.03220400    1.08609100
 C                  2.27200200    1.41029400   -1.50242300
 H                  1.43670800    2.10384600   -1.63873900
 H                  3.20766300    1.97637200   -1.43070100
 H                  2.31441400    0.75628200   -2.37865000
 C                 -2.52117700    0.98752200    1.64658200
 H                 -1.73237800    1.60083100    2.09259500
 H                 -3.44324200    1.57580700    1.57825300
 H                 -2.69134900    0.12692900    2.30031800
 C                 -3.52214100   -0.38104800   -0.62675800
 H                 -4.37912800    0.29972500   -0.56560100
 H                 -3.38141300   -0.68705100   -1.66818300
 H                 -3.73058700   -1.27901900   -0.03701200
 C                 -1.99533600    1.97397600   -0.96271800
 H                 -1.74276800    1.76937600   -2.00777400
 H                 -2.97516300    2.46326900   -0.91894600
 H                 -1.23740900    2.65048500   -0.55548600
 H                 -0.43543000   -2.51492400   -0.02571000
 H                  0.40811100   -2.52150700   -0.00373900

Pt 0
SDD
****
P C H 0
6-31g*
****

Pt
SDD



