%chk=Pt_P.chk
%nprocshared=24
#p irc=(calcfc,lqa,maxpoint=30,stepsize=15) genecp
scrf=(smd,solvent=benzene) m062x

Title Card Required

0 1
 Pt                 0.00077400   -0.74378400    0.01605600
 P                  1.82484800    0.68426100   -0.03933200
 P                 -1.81806300    0.69345600   -0.01359500
 C                  1.91333000    1.95296100    1.28559300
 H                  1.85722100    1.45816500    2.25991400
 H                  2.84232800    2.53022900    1.22805800
 H                  1.06318500    2.63757400    1.20114000
 C                  3.45102700   -0.14433200    0.12622900
 H                  3.57090200   -0.85780700   -0.69426500
 H                  4.27744900    0.57456200    0.11103500
 H                  3.47060300   -0.70537000    1.06511600
 C                  2.06781300    1.68782100   -1.55687000
 H                  1.21396200    2.35646600   -1.70146800
 H                  2.98519400    2.28332300   -1.49851700
 H                  2.12695400    1.01998000   -2.42147000
 C                 -2.38582400    1.18964800    1.65836000
 H                 -1.59336400    1.75079600    2.16305600
 H                 -3.29101500    1.80447700    1.60963100
 H                 -2.58977700    0.28955500    2.24531000
 C                 -3.33862200   -0.02731600   -0.74011300
 H                 -4.17115300    0.68350500   -0.72219400
 H                 -3.13910300   -0.32776800   -1.77266100
 H                 -3.60931300   -0.92371900   -0.17541500
 C                 -1.72765600    2.30928700   -0.88524600
 H                 -1.48702400    2.13902000   -1.93928900
 H                 -2.67699700    2.85199900   -0.82038100
 H                 -0.93836600    2.92711100   -0.44438200
 H                 -1.06026000   -1.94383500    0.08006200
 H                  1.02759600   -1.97184400    0.08133200

