%chk=Pt_ts4.chk
%nprocshared=24
#p opt=(calcall,ts,noeigen) b3lyp/genecp scrf=(smd,solvent=benzene) em=gd3bj

Title Card Required

0 1
 Pt                -0.00099300    0.87024700    0.00797100
 P                  1.84543700   -0.55875300    0.00529600
 P                 -1.85307400   -0.55158800    0.00690200
 C                  2.99485900   -0.27002000    1.41401900
 H                  2.47552500   -0.47668200    2.35553300
 H                  3.88559700   -0.90551500    1.34654000
 H                  3.29608100    0.78159600    1.41789500
 C                  1.67654700   -2.39632400    0.03308400
 H                  1.07287400   -2.72437300   -0.81937000
 H                  2.65642900   -2.88488200   -0.02106400
 H                  1.17842900   -2.70835400    0.95566400
 C                  2.92985500   -0.30976700   -1.46171200
 H                  3.22163700    0.74310600   -1.51507200
 H                  3.82796000   -0.93645700   -1.41188400
 H                  2.37177600   -0.55252000   -2.37197700
 C                 -3.36134000    0.19003700    0.75636100
 H                 -3.60914300    1.11173500    0.22205100
 H                 -4.21459800   -0.49725300    0.71853400
 H                 -3.15312300    0.45108500    1.79902900
 C                 -1.79232600   -2.18782400    0.85881400
 H                 -2.77943400   -2.66448600    0.86630900
 H                 -1.08677500   -2.85125200    0.35238200
 H                 -1.45780500   -2.04897400    1.89212700
 C                 -2.43244000   -1.01536700   -1.67942200
 H                 -1.64671700   -1.57693300   -2.19539800
 H                 -3.34397600   -1.62325800   -1.64181900
 H                 -2.62919400   -0.10387000   -2.25231300
 H                 -1.05343700    2.10428600   -0.00861700
 H                  1.08899900    2.07444700   -0.02010700

Pt 0
SDD
****
P C H 0
6-31g*
****

Pt
SDD


