%chk=Pt_ts.chk
%nprocshared=24
#p opt=(ts,calcfc) freq b3lyp/genecp scrf=(smd,solvent=benzene) em=gd3bj

Title Card Required

0 1
 Pt                -0.00000600   -0.00018200    0.00027800
 P                  2.27880200   -0.00000600   -0.00013800
 P                 -2.27882300    0.00010800   -0.00000700
 C                  3.09451400    1.00576500   -1.31481800
 H                  2.77885200    2.05026300   -1.22188100
 H                  4.18819700    0.95144600   -1.24348700
 H                  2.77918900    0.64291600   -2.29877600
 C                  3.09562600    0.63598300    1.52757100
 H                  2.78044600    0.03390800    2.38631300
 H                  4.18922600    0.60108800    1.44416000
 H                  2.78080500    1.66975500    1.70501400
 C                  3.09532900   -1.64107900   -0.21379200
 H                  2.77976100   -2.08342300   -1.16460800
 H                  4.18897400   -1.55163900   -0.20267500
 H                  2.78052300   -2.31172700    0.59268600
 C                 -3.09575700   -1.00375600    1.31536400
 H                 -2.78080200   -0.63985800    2.29905400
 H                 -4.18937300   -0.94903200    1.24336300
 H                 -2.78052000   -2.04851000    1.22386500
 C                 -3.09479600   -0.63733400   -1.52754700
 H                 -4.18844800   -0.60225100   -1.44487400
 H                 -2.77899200   -0.03611600   -2.38666000
 H                 -2.77996100   -1.67130400   -1.70379700
 C                 -3.09484700    1.64176000    0.21115400
 H                 -2.77893800    2.31145900   -0.59567800
 H                 -4.18851700    1.55275600    0.19902500
 H                 -2.78005800    2.08492600    1.16184500
 H                  0.00021363    1.90282539   -0.05281507
 H                 -0.00000544    1.17159941   -1.52032884

Pt 0
SDD
****
P C H 0
6-31g*
****

Pt 0
SDD


