#p hf/3-21g

title

0 1
 C                  7.30441500    1.74207900   14.49898900
 H                  7.77367000    1.91210700   13.52555400
 H                  6.40420200    2.35228000   14.55161800
 C                  8.25277400    2.09996900   15.58521000
 H                  7.00643100    0.69599200   14.55533300
 C                  9.31815400    1.27729300   16.06802100
 C                  8.30401100    3.33956400   16.25254000
 C                  9.69106900   -0.06568000   15.53425600
 C                 10.02399400    2.02823800   17.04099900
 C                  9.38737400    3.29649600   17.18419700
 C                  7.46707400    4.52157000   15.91159000
 H                  8.81348700   -0.61447400   15.19534500
 H                 10.19506700   -0.66573600   16.29108900
 H                 10.36674300    0.02758800   14.67992300
 C                 11.29653000    1.63400500   17.71365900
 C                  9.92016300    4.45928700   17.95264700
 H                  7.82242600    4.95797300   14.97334400
 H                  6.42035800    4.24873600   15.78783600
 H                  7.52331400    5.28380400   16.68250100
 H                 11.38421800    2.09570200   18.69585800
 H                 12.14749700    1.96493600   17.11284100
 H                 11.37157300    0.55409500   17.83712700
 H                  9.13046700    5.16800100   18.18252300
 H                 10.68295500    4.98017400   17.36676300
 H                 10.37476900    4.15338400   18.89314400
 Fe                 8.03427900    1.74622000   17.67648400
 P                  6.25009900    2.64295600   18.64502800
 C                  8.55184200    1.13631000   19.20099400
 O                  5.77090500    2.12077500   20.00866200
 C                  5.12601500    2.12672600   17.35274400
 C                  5.96399200    4.42390900   18.65813000
 O                  8.96205400    0.75040200   20.20794900
 K                  5.14443700    1.00434600   22.22035600
 C                  4.10226600    2.91939000   16.86889300
 C                  5.39682000    0.77667000   16.99163800
 C                  4.85856000    4.94142600   18.03839800
 C                  6.85422900    5.26734400   19.46500100
 O                  6.09011500   -1.54313300   23.01950200
 O                  3.15493800    2.94318500   22.58304000
 H                  3.43636800    2.50033100   16.12093700
 C                  3.93710600    4.27310700   17.17553600
 N                  6.66036100    0.34572800   17.28030500
 C                  4.46877600   -0.13240200   16.45360200
 H                  4.64123400    5.98713300   18.23637300
 C                  7.56002800    4.74580700   20.56389100
 C                  7.07603400    6.61588500   19.14601300
 C                  7.29747800   -1.43840800   23.74528500
 C                  6.21549200   -2.36530300   21.87702700
 C                  2.02441200    2.91120500   21.73692400
 C                  2.86179700    3.56319200   23.81373400
 C                  2.84816800    5.03243000   16.52608000
 C                  6.96379600   -0.94381900   17.15085400
 H                  3.47333600    0.21530100   16.21679000
 C                  4.80880200   -1.45346800   16.28643100
 H                  7.39970000    3.71500900   20.84641300
 C                  8.41824100    5.53870000   21.30940400
 H                  6.58891200    7.04225000   18.27769700
 C                  7.93859400    7.40691000   19.88945600
 H                  8.05878600   -0.92556000   23.14411000
 H                  7.67380000   -2.43689500   23.99510300
 C                  7.05404600   -0.69807600   25.02816600
 H                  6.60070900   -3.34802100   22.17323600
 H                  6.92355400   -1.91907600   21.16832000
 C                  4.87061300   -2.55128000   21.22831100
 C                  2.34860100    2.15413700   20.48630900
 H                  1.72208200    3.93171300   21.47403500
 H                  1.18849900    2.41788700   22.23767600
 C                  4.13741600    3.81938500   24.55130700
 H                  2.19983600    2.92512400   24.41096200
 H                  2.35204300    4.51882400   23.64577700
 C                  1.64840900    4.42046400   16.11940300
 C                  2.96439500    6.41497300   16.24314700
 H                  7.96156600   -1.22872400   17.45275900
 C                  6.08064700   -1.88586400   16.66370200
 H                  4.08650500   -2.15534200   15.88995200
 H                  8.94107900    5.10620700   22.15375400
 C                  8.61497700    6.87444600   20.98083100
 H                  8.10698300    8.43659900   19.59722600
 O                  6.74376300    0.64636700   24.75539700
 H                  6.23437900   -1.16761100   25.58511300
 H                  7.96069700   -0.76202500   25.64218300
 O                  4.44956400   -1.32428000   20.69359100
 H                  4.96332200   -3.30088300   20.43240400
 H                  4.14590600   -2.92387400   21.96352600
 O                  2.47964600    0.77803000   20.78235200
 H                  1.52597200    2.30549900   19.78250200
 H                  3.27669500    2.52499400   20.03776900
 O                  4.72513500    2.58622700   24.89542500
 H                  4.82110300    4.40197700   23.92200100
 H                  3.91669400    4.40498100   25.45189200
 H                  1.49415300    3.37141700   16.31865100
 C                  0.64533200    5.13005500   15.48196700
 H                  3.88476400    6.92360700   16.49062000
 C                  1.95492000    7.12438100   15.61269700
 H                  6.38205100   -2.91966200   16.57928600
 H                  9.29095200    7.49016400   21.55970300
 C                  6.49483000    1.39706300   25.92004900
 C                  3.18183900   -1.38057700   20.08217600
 C                  2.80129000    0.00485600   19.64312400
 C                  5.97653600    2.74578700   25.51949000
 H                 -0.26130300    4.61649400   15.18706300
 C                  0.78195300    6.48905100   15.22921800
 H                  2.09187600    8.17793700   15.39917900
 H                  7.41466100    1.51888700   26.50444200
 H                  5.75602000    0.88483200   26.54724800
 H                  2.43845300   -1.77018600   20.78973800
 H                  3.20842100   -2.04722100   19.21331200
 H                  3.63378900    0.46631100   19.10796000
 H                  1.93854600   -0.05143800   18.96789500
 H                  5.88121700    3.37274100   26.41405300
 H                  6.68081000    3.23647800   24.83603100
 H                 -0.00682200    7.04185000   14.73730800

