# rhf/3-21g

IRC test:   SIH2+H2 OPTM. AT 3-21G LEVEL (STEP=0.1,POINT NUMBER 1-30)

0 1
 Si                 0.00000000    0.00000000    0.00000000
 H                  0.78338953    1.23552312   -0.25085843
 H                  0.78338953   -1.23552312   -0.25085843
 H                 -0.54807474    0.00000000    1.44193846
 H                  0.54807474    0.00000000    1.59366154

