%chk=PMe3.chk
%nproc=24
#p b3lyp/6-31g* opt em=gd3bj 

Title Card Required

0 1
 P                 -0.56722688    0.52521008    0.00000000
 C                  0.03941897   -1.19070974    0.00000000
 H                 -0.31884957   -1.69567207    0.87267216
 H                 -0.31565639   -1.69454316   -0.87462757
 H                  1.10941718   -1.19072356    0.00195541
 C                  0.04216547    1.38411833   -1.48435763
 H                 -0.31290929    0.88028422   -2.35898504
 H                 -0.31448895    2.39292833   -1.48435763
 H                  1.11216369    1.38410475   -1.48240164
 C                  0.03673206    1.38219740    1.48768489
 H                 -0.31992236    2.39100740    1.48768489
 H                 -0.32153707    0.87723396    2.36035616
 H                  1.10673027    1.38218383    1.48964116




