%chk=PMe3_ts.chk
%nprocshared=24
#p opt=(ts,calcfc,noeigen,restart,maxcycle=300) b3lyp/6-31g(d) em=gd3bj scrf=(smd,solvent=benzene)

Title Card Required

0 1
 P                  0.00009500   -0.00002500    0.61160300
 C                 -1.00008400   -1.29520800   -0.28295700
 H                 -0.65380900   -2.29335500    0.00652500
 H                 -2.05326800   -1.21287700    0.00691300
 H                 -0.92727600   -1.20046300   -1.37353500
 C                 -0.62187300    1.51355400   -0.28294800
 H                 -1.65926500    1.71280900    0.00708500
 H                 -0.02381200    2.38453100    0.00639400
 H                 -0.57691100    1.40287400   -1.37352200
 C                  1.62182000   -0.21831800   -0.28304100
 H                  2.31301600    0.58059100    0.00678600
 H                  2.07714100   -1.17161500    0.00663200
 H                  1.50359100   -0.20229200   -1.37364500
 H                  0.81417113    0.59655732    2.04540255
 H                 -0.26900456   -0.86566385    2.11704582

