%chk=PMe3_ts4.chk
%nprocshared=24
#p opt=(calcfc,ts,noeigen) freq b3lyp/6-31g(d) scrf=(smd,solvent=benzene)
em=gd3bj

title

0 1
 P                 -0.00772600   -0.21785400    0.45641400
 C                  0.06006123    1.57756936   -0.10643208
 H                 -0.84849777    2.09918836    0.22571992
 H                  0.91974823    2.08328636    0.35449892
 H                  0.13694423    1.69155236   -1.19639108
 C                  1.58532200   -0.64290300   -0.39708100
 H                  1.98529800   -1.59493400   -0.03979000
 H                  1.37448100   -0.72595600   -1.47007500
 H                  2.32199400    0.15424200   -0.26324800
 C                 -1.62428200   -0.54471500   -0.40637600
 H                 -1.57556700   -1.53329100   -0.87403700
 H                 -2.40936100   -0.58009600    0.35845300
 H                 -1.88116800    0.21771400   -1.14695800
 H                 -0.29869087   -1.96235445    1.81954587
 H                 -0.13989528   -0.87488432    2.21857135

