%chk=PMe3_ts2.chk
%nprocshared=24
#p opt=(calcfc,ts,noeigen) freq b3lyp/6-31g(d) scrf=(smd,solvent=benzene) em=gd3bj

title

0 1
 P                 -0.00071100   -0.21570600    0.43308600
 C                  0.00140800    1.63783200   -0.11241000
 H                 -0.89008800    2.15415400    0.27032000
 H                  0.88527900    2.15362600    0.28799100
 H                  0.01203100    1.73967200   -1.20607000
 C                  1.63302100   -0.58297900   -0.38337800
 H                  2.30579300   -1.00450100    0.37117700
 H                  1.45750600   -1.36139400   -1.13494700
 H                  2.09891900    0.28589100   -0.85569900
 C                 -1.63273600   -0.58168000   -0.38483700
 H                 -1.47207400   -1.39778000   -1.09827000
 H                 -2.32227200   -0.95044300    0.38249600
 H                 -2.07344600    0.27745800   -0.89745900
 H                  0.00081800   -1.66804900    0.86099600
 H                 -0.00195600    0.16791900    1.80692200



