%chk=irc4.chk
%nprocshared=24
#p irc=(lqa,calcfc,maxpoints=50,stepsize=20) b3lyp/6-31+g(d)

Title Card Required

0 1
 C                  1.13405700   -0.84533800   -0.26197800
 H                  1.91342200   -1.50926800    0.12842800
 H                  1.20979400   -0.89020600   -1.36148100
 C                 -0.17381600   -1.31748300    0.21281000
 H                 -0.34025000   -2.32893100    0.57064700
 O                 -1.31070800   -0.66961500   -0.01992400
 C                 -1.22678500    0.76391100   -0.09346100
 H                 -1.64086800    1.02281200   -1.08553200
 H                 -1.98614900    1.07013700    0.63880600
 C                  0.09169900    1.38499900    0.14326100
 H                  0.11334000    2.42946400   -0.16586400
 C                  1.37923000    0.65268000    0.14022300
 H                  2.11918300    1.12754700   -0.53199800
 H                  1.87088300    0.60275300    1.12125500

