%chk=ircb4.chk
%nprocshared=24
#p irc=(lqa,calcfc,maxpoint=30) b3lyp/6-31+g(d)

Title Card Required

0 1
 C                 -1.47664000    0.80064900   -0.29259900
 H                 -1.22862000    0.97160100   -1.33436000
 H                 -2.14090100    1.51934300    0.18291800
 C                 -1.30522100   -0.45279700    0.26743900
 O                 -0.54093300   -1.35575700   -0.24688800
 C                  1.29414800   -0.91654100    0.17894600
 H                  1.17396000   -1.08877100    1.24427900
 H                  1.74713100   -1.73669800   -0.36746500
 C                  1.38201300    0.39477400   -0.31070900
 H                  1.69117700    0.53495400   -1.34497100
 C                  0.70828200    1.42163600    0.32689000
 H                  0.48566200    1.36362300    1.38801200
 H                  0.67023100    2.41975400   -0.10124300
 H                 -1.68667600   -0.62407400    1.28812400

