%chk=ircb2.chk
%nprocshared=24
#p irc=(calcfc,maxpoint=30) b3lyp/6-31+g(d)

Title Card Required

0 1
 C                  1.13434400   -0.84514100    0.26180700
 H                  1.21044400   -0.89019400    1.36127400
 H                  1.91377800   -1.50878900   -0.12895100
 C                 -0.17351900   -1.31759000   -0.21263900
 O                 -1.31051100   -0.66992200    0.01997700
 C                 -1.22702300    0.76364400    0.09335200
 H                 -1.98636400    1.06952200   -0.63908500
 H                 -1.64139300    1.02252800    1.08530200
 C                  0.09133600    1.38508900   -0.14313600
 H                  0.11271500    2.42958300    0.16590700
 C                  1.37903700    0.65305800   -0.14016100
 H                  1.87074400    0.60339700   -1.12118100
 H                  2.11887000    1.12801600    0.53212600
 H                 -0.33976500   -2.32904200   -0.57054100

