%chk=E:\TCCNotes\ICC\1011\claisen\R.chk
# hf/3-21g geom=connectivity

Title Card Required

0 1
 C                 -3.55779445   -1.52644067    1.23170594
 H                 -3.14991667   -1.87225528    2.15850041
 H                 -4.60595632   -1.34589728    1.34858531
 C                 -2.85502958   -0.22036723    0.81710530
 H                 -3.24736887    0.72272222    1.13577781
 O                 -1.81934995   -0.26226235    0.10353466
 C                 -0.94081111   -1.86077373    0.21600147
 H                  0.10735085   -2.04131756    0.09912360
 H                 -1.28654996   -0.89563601    0.52238984
 C                 -1.83045955   -2.85449465   -0.02402230
 H                 -1.48472082   -3.81963175   -0.33041276
 C                 -3.33902896   -2.59464715    0.14419659
 H                 -3.74690675   -2.24883255   -0.78259787
 H                 -3.82731365   -3.50211376    0.43226327

 1 2 1.0 3 1.0 4 1.0 12 1.0
 2
 3
 4 5 1.0 6 2.0
 5
 6
 7 8 1.0 9 1.0 10 2.0
 8
 9
 10 11 1.0 12 1.0
 11
 12 13 1.0 14 1.0
 13
 14

