%chk=E:\TCCNotes\ICC\1011\claisen\R.chk
# hf/3-21g geom=connectivity

Title Card Required

0 1
 C                 -3.55779445   -1.52644067    1.23170594
 H                 -3.78029479   -1.49517863    2.27784948
 H                 -4.46634259   -1.63424269    0.67689155
 C                 -2.85502958   -0.22036723    0.81710530
 H                 -3.24736887    0.72272222    1.13577781
 O                 -1.81934995   -0.26226235    0.10353466
 C                 -0.92200341   -1.36992311   -0.30166232
 H                 -0.32950974   -1.15912179   -1.16734937
 H                 -0.83710550   -0.75245858    0.56806746
 C                 -1.77994890   -2.41895617   -0.30678290
 H                 -1.86484839   -3.03641939   -1.17651346
 C                 -2.63269517   -2.72235379    0.93915998
 H                 -3.22443759   -3.59610428    0.76223912
 H                 -1.99068151   -2.89033219    1.77850598

 1 2 1.0 3 1.0 4 1.0 12 1.0
 2
 3
 4 5 1.0 6 2.0
 5
 6
 7 8 1.0 9 1.0 10 2.0
 8
 9
 10 11 1.0 12 1.0
 11
 12 13 1.0 14 1.0
 13
 14

