%chk=Pb4.chk
%nprocshared=24
#p opt freq b3lyp/6-31+g(d)

Title Card Required

0 1
 C                 -1.06682100    0.94877600   -0.22051500
 H                 -1.09135400    0.95514400   -1.31691200
 H                 -1.79119300    1.67524300    0.16405300
 C                 -1.39422700   -0.43809500    0.27774900
 O                 -1.05960100   -1.45168300   -0.29038000
 C                  1.89501700   -0.67794600    0.26162400
 H                  1.57809400   -0.98815500    1.25572300
 H                  2.60999400   -1.32085500   -0.23649500
 C                  1.42766700    0.42862600   -0.31610400
 H                  1.76279800    0.68525300   -1.32327700
 C                  0.37383000    1.32545200    0.28301600
 H                  0.38571100    1.25708100    1.37573000
 H                  0.56056400    2.37347100    0.02136300
 H                 -1.90846900   -0.49182500    1.26573300

