%chk=pl.chk
#p b3lyp/6-31+g* opt freq

test

0 1
 6 -1.503862 1.298556   0.124490
 6 -1.723613 0.025782    -0.216449
 8 -0.895718 -1.049478   -0.108752
 1 -2.299856 2.020765   -0.017278
 1 -0.563727 1.662194    0.519783
 1 -2.671250 -0.298246   -0.639513
 6 0.382118 -0.862164     0.506130
 1 0.275354 -0.300198     1.444129
 1 0.702424 -1.880775    0.755132
 6 1.392036 -0.217777   -0.405860
 6 2.285581 0.691497    -0.018256
 1 1.385747 -0.583429   -1.432378
 1 2.311121 1.073353   1.000993
 1 3.032368 1.086810   -0.701185
 
 
 