%chk=E:\TCCNotes\ICC\1011\claisen\R.chk
# hf/3-21g geom=connectivity

Title Card Required

0 1
 C                 -3.76141514   -1.43795723    0.61962060
 H                 -3.24085512   -2.35901693    0.77951526
 H                 -4.81573482   -1.38215389    0.79339053
 C                 -3.08538600   -0.34207355    0.19702079
 H                 -3.60594542    0.57898706    0.03712946
 O                 -1.67634266   -0.41665295   -0.03521781
 C                 -1.10009325   -1.39079377    0.83878808
 H                 -0.04577410   -1.44659793    0.66501515
 H                 -1.27960777   -1.10863886    1.85518522
 C                 -1.73858155   -2.76564432    0.56727634
 H                 -1.17258936   -3.65942457    0.72761881
 C                 -3.01730418   -2.84350255    0.12526551
 H                 -3.58329757   -1.94972244   -0.03507349
 H                 -3.46092886   -3.79875582   -0.06338318

 1 2 1.0 3 1.0 4 2.0
 2
 3
 4 5 1.0 6 1.0
 5
 6 7 1.0
 7 8 1.0 9 1.0 10 1.0
 8
 9
 10 11 1.0 12 2.0
 11
 12 13 1.0 14 1.0
 13
 14

