%chk=R2.chk
%nproc=24
#p b3lyp/6-31+g* opt=calcfc freq

Title Card Required

0 1
 C                 -3.86267956   -1.38756702   -0.13749095
 H                 -3.45914674   -2.21884496   -0.67697057
 H                 -4.89591297   -1.38091384    0.14050983
 C                 -3.06513716   -0.34314530    0.19368338
 H                 -3.48975562    0.53728346    0.62893544
 O                 -1.69659150   -0.41558120   -0.03188040
 C                 -1.12034209   -1.38972202    0.84212549
 H                 -0.06602294   -1.44552618    0.66835256
 H                 -1.29985661   -1.10756711    1.85852263
 C                 -1.75883039   -2.76457257    0.57061375
 H                 -1.25410376   -3.70732773    0.53368501
 C                 -3.11316774   -2.72144931    0.59247180
 H                 -3.61602946   -1.79533279    0.77777766
 H                 -3.67962488   -3.61351833    0.42442665

 1 2 1.0 3 1.0 4 2.0
 2
 3
 4 5 1.0 6 1.0
 5
 6 7 1.0
 7 8 1.0 9 1.0 10 1.0
 8
 9
 10 11 1.0 12 2.0
 11
 12 13 1.0 14 1.0
 13
 14

