%chk=E:\TCCNotes\ICC\1011\claisen\R.chk
# hf/3-21g geom=connectivity

Title Card Required

0 1
 C                 -3.44573995   -1.33828783    0.80053454
 H                 -2.78369596   -0.96099062    1.55169668
 H                 -4.45495281   -1.21986696    1.13574478
 C                 -3.10302679   -0.67900219   -0.32903341
 H                 -3.75673843   -0.14672799   -0.98800630
 O                 -1.68005638   -0.75873267   -0.57551539
 C                 -1.23821561   -1.45259008    0.62924022
 H                 -0.17478579   -1.52676146    0.53696007
 H                 -1.47688734   -0.90403634    1.51638429
 C                 -1.81471047   -2.74194291    0.69120110
 H                 -1.26074565   -3.65265989    0.78403184
 C                 -3.21308356   -2.83042971    0.48611088
 H                 -3.39408122   -3.08400652   -0.53752902
 H                 -3.81077330   -3.46347165    1.10814372

 1 2 1.0 3 1.0 4 1.5 12 1.5
 2
 3
 4 5 1.0 6 1.5
 5
 6 7 1.5
 7 8 1.0 9 1.0 10 1.5
 8
 9
 10 11 1.0 12 1.5
 11
 12 13 1.0 14 1.0
 13
 14

