%chk=ts.chk
%nproc=24
#p b3lyp/6-31+g* opt=(ts,noeigen,calcfc) freq

Title Card Required

0 1
 C                 -3.70111948   -1.20117382    0.66412081
 H                 -3.64991482   -0.59755074    1.54611698
 H                 -4.60609425   -1.77166050    0.68569873
 C                 -2.99171788   -0.12140958   -0.14792346
 H                 -3.57857926    0.52675831   -0.76466660
 O                 -1.75142381   -0.54241758   -0.76101753
 C                 -0.82204003   -1.87494313    0.22595463
 H                  0.12755849   -2.31379654    0.00107612
 H                 -0.67566227   -1.02538409    0.85977083
 C                 -1.65527356   -2.95537457    0.75041833
 H                 -1.08097847   -3.83108867    0.96998596
 C                 -2.35676591   -2.39948211    1.63051001
 H                 -2.46830530   -3.08250918    2.44655718
 H                 -1.49610875   -1.78904318    1.80808682

 1 2 1.0 3 1.0 4 1.5 12 1.5
 2
 3
 4 5 1.0 6 1.5
 5
 6 7 1.5
 7 8 1.0 9 1.0 10 1.5
 8
 9
 10 11 1.0 12 1.5
 11
 12 13 1.0 14 1.0
 13
 14

