%chk=ts.chk
%nprocshared=24
#p opt=(calcfc,ts,noeigen) freq b3lyp/6-31+g(d)

Title Card Required

0 1
 C                 -1.39157000    0.07715000   -0.30891800
 H                 -2.45692600    0.24206900   -0.11951300
 H                 -1.21068600   -0.09826100   -1.40644500
 C                 -0.60587300    1.24913800    0.06886200
 H                 -1.00945700    2.24760400    0.23303400
 O                  0.67945200    1.20676700    0.14847700
 C                  1.48842000   -0.06508700   -0.08448400
 H                  2.11517700    0.18836500   -0.94841000
 H                  2.14588900   -0.05509400    0.80926100
 C                  0.60242500   -1.27974300   -0.26439100
 H                  1.15006700   -2.17864300    0.03755900
 C                 -0.76139500   -1.14422600    0.35439000
 H                 -1.38350800   -2.01936400    0.14172400
 H                 -0.77821000   -1.00420000    1.47222100

