%chk=tsb.chk
%nprocshared=24
#p opt=(calcfc,ts,noeigen) freq b3lyp/6-31+g(d)

Title Card Required

0 1
 C                  1.12779071   -0.88362530   -0.27225771
 H                  1.24379216   -1.56289666    0.57966000
 H                  1.92157865   -1.14825468   -0.99095658
 C                 -0.22211971   -1.05681878   -0.82665907
 O                 -1.28838144   -0.69748903   -0.03545455
 C                 -1.19331721    0.82107565   -0.03971326
 H                 -1.61132179    1.08542566   -1.02869787
 H                 -1.95851135    1.10411956    0.69580498
 C                  0.11663870    1.18721461    0.69183585
 H                  0.24085396    1.96337183    1.44621259
 C                  1.35753161    0.70183603    0.16233151
 H                  1.69834273    1.29511176   -0.70760059
 H                  2.21709506    0.67163682    0.84561611
 H                 -0.36640810   -1.45465996   -1.80941196

