%chk=tsb2.chk
%nprocshared=24
#p opt=(calcall,ts,noeigen) freq b3lyp/6-31+g(d)

Title Card Required

0 1
 C                 -1.13539500   -0.84443500   -0.26113100
 H                 -1.21291800   -0.89051300   -1.36047100
 H                 -1.91491000   -1.50712100    0.13111000
 C                  0.17262100   -1.31759900    0.21259100
 O                  1.30991100   -0.67102300   -0.02099800
 C                  1.22805600    0.76287100   -0.09238700
 H                  1.98627800    1.06652700    0.64218800
 H                  1.64471800    1.02289300   -1.08302000
 C                 -0.09036300    1.38529800    0.14208500
 H                 -0.11134900    2.43000700   -0.16621200
 C                 -1.37849800    0.65403000    0.13991200
 H                 -1.87026000    0.60544800    1.12099300
 H                 -2.11788300    1.12945000   -0.53251700
 H                  0.33851700   -2.32949600    0.56949000

