%chk=tsb3.chk
%nprocshared=24
#p opt=(calcfc,ts,noeigen) freq b3lyp/6-31+g(d)

Title Card Required

0 1
 C                  1.09830499   -1.07968154    0.26755824
 H                  1.21979926   -1.01913485    1.36219147
 H                  1.88109930   -1.75640779   -0.09287550
 C                 -0.16985649   -1.41788422   -0.34091392
 O                 -1.32373560   -0.89041051    0.00760681
 C                 -1.25971739    1.04344906   -0.03079788
 H                 -1.76788686    1.44093142   -0.91983985
 H                 -1.93017750    1.25705683    0.82216354
 C                  0.14412436    1.68180218    0.09563263
 H                  0.11291296    2.69991390    0.48216429
 C                  1.42273658    0.98929859   -0.22802200
 H                  1.91444358    0.93963759   -1.20904200
 H                  2.16256958    1.46425659    0.44426500
 H                 -0.15817972   -2.22919183   -1.06230863

