%chk=tsb4.chk
%nprocshared=24
#p opt=(calcfc,ts,noeigen) freq b3lyp/6-31+g(d)

Title Card Required

0 1
 C                  1.47670500    0.79993800    0.29286800
 H                  1.22927500    0.97079300    1.33479200
 H                  2.14120700    1.51833400   -0.18276700
 C                  1.30474700   -0.45348500   -0.26732200
 O                  0.53995700   -1.35615600    0.24665400
 C                 -1.29468300   -0.91570800   -0.17899600
 H                 -1.17477600   -1.08783600   -1.24438600
 H                 -1.74830500   -1.73569700    0.36712900
 C                 -1.38143400    0.39564000    0.31080900
 H                 -1.68949600    0.53584500    1.34540200
 C                 -0.70713100    1.42184200   -0.32702700
 H                 -0.48512500    1.36325600   -1.38827200
 H                 -0.66823200    2.42008700    0.10071700
 H                  1.68657700   -0.62488900   -1.28784200

