%chk=ts_maugccpvtz.chk
%nproc=24
#p b3lyp/maug-cc-pvtz opt=(ts,noeigen,calcfc,recalc=5) freq

Title Card Required

-1 1
 C                  3.59392011   -0.10339474    0.00000068
 H                  3.59535552   -1.17339386    0.00000286
 H                  3.59320237    0.43160451    0.92664799
 H                  3.59320273    0.43160639   -0.92664566
 Cl                 1.15622231   -0.10666656   -0.00000436
 Br                 6.26131771   -0.09981893   -0.00000435


